
  EPA STORM WATER MANAGEMENT MODEL - VERSION 5.1 (Build 5.1.015)
  --------------------------------------------------------------

  WARNING 04: minimum elevation drop used for Conduit 1016
  WARNING 04: minimum elevation drop used for Conduit 205
  WARNING 04: minimum elevation drop used for Conduit 2075
  WARNING 04: minimum elevation drop used for Conduit 2064
  WARNING 04: minimum elevation drop used for Conduit 2017
  WARNING 04: minimum elevation drop used for Conduit 2126
  WARNING 04: minimum elevation drop used for Conduit 2033
  WARNING 04: minimum elevation drop used for Conduit 2054
  WARNING 04: minimum elevation drop used for Conduit 2055
  WARNING 04: minimum elevation drop used for Conduit 2135
  WARNING 04: minimum elevation drop used for Conduit 2083
  WARNING 04: minimum elevation drop used for Conduit 2081
  WARNING 04: minimum elevation drop used for Conduit 2101
  WARNING 04: minimum elevation drop used for Conduit 2088
  WARNING 04: minimum elevation drop used for Conduit 2131
  WARNING 04: minimum elevation drop used for Conduit 2137
  WARNING 04: minimum elevation drop used for Conduit 2128
  WARNING 04: minimum elevation drop used for Conduit 3059
  WARNING 04: minimum elevation drop used for Conduit 3057
  WARNING 04: minimum elevation drop used for Conduit 3063
  WARNING 04: minimum elevation drop used for Conduit 3064
  WARNING 04: minimum elevation drop used for Conduit 3028
  WARNING 04: minimum elevation drop used for Conduit 3087
  WARNING 04: minimum elevation drop used for Conduit 3026
  WARNING 04: minimum elevation drop used for Conduit 3055
  WARNING 04: minimum elevation drop used for Conduit 3048
  WARNING 04: minimum elevation drop used for Conduit 3035
  WARNING 04: minimum elevation drop used for Conduit 3051
  WARNING 04: minimum elevation drop used for Conduit 3045
  WARNING 04: minimum elevation drop used for Conduit 3043
  WARNING 04: minimum elevation drop used for Conduit 3052
  WARNING 04: minimum elevation drop used for Conduit 3074
  WARNING 04: minimum elevation drop used for Conduit 3056
  WARNING 04: minimum elevation drop used for Conduit 3060
  WARNING 04: minimum elevation drop used for Conduit 3016
  WARNING 04: minimum elevation drop used for Conduit 4036
  WARNING 04: minimum elevation drop used for Conduit 4035
  WARNING 04: minimum elevation drop used for Conduit 4025
  WARNING 04: minimum elevation drop used for Conduit 4034
  WARNING 04: minimum elevation drop used for Conduit 4062
  WARNING 04: minimum elevation drop used for Conduit 4071
  WARNING 04: minimum elevation drop used for Conduit 4072
  WARNING 04: minimum elevation drop used for Conduit 4069
  WARNING 04: minimum elevation drop used for Conduit 4065
  WARNING 04: minimum elevation drop used for Conduit 4042
  WARNING 04: minimum elevation drop used for Conduit 4024
  WARNING 04: minimum elevation drop used for Conduit 4039
  WARNING 04: minimum elevation drop used for Conduit 4040
  WARNING 04: minimum elevation drop used for Conduit 4018
  WARNING 04: minimum elevation drop used for Conduit 4044
  WARNING 04: minimum elevation drop used for Conduit 4052
  WARNING 04: minimum elevation drop used for Conduit 4057
  WARNING 04: minimum elevation drop used for Conduit 7025
  WARNING 04: minimum elevation drop used for Conduit 7028
  WARNING 04: minimum elevation drop used for Conduit 7027
  WARNING 04: minimum elevation drop used for Conduit 7026
  WARNING 04: minimum elevation drop used for Conduit 7021
  WARNING 04: minimum elevation drop used for Conduit 7024
  WARNING 04: minimum elevation drop used for Conduit 8050
  WARNING 04: minimum elevation drop used for Conduit 8031
  WARNING 04: minimum elevation drop used for Conduit 8035
  WARNING 04: minimum elevation drop used for Conduit 8024
  WARNING 04: minimum elevation drop used for Conduit 8058
  WARNING 04: minimum elevation drop used for Conduit 8021
  WARNING 04: minimum elevation drop used for Conduit 8037
  WARNING 04: minimum elevation drop used for Conduit 9042
  WARNING 04: minimum elevation drop used for Conduit 9026
  WARNING 04: minimum elevation drop used for Conduit 9052
  WARNING 04: minimum elevation drop used for Conduit 9041
  WARNING 04: minimum elevation drop used for Conduit 9039
  WARNING 04: minimum elevation drop used for Conduit 9018
  WARNING 04: minimum elevation drop used for Conduit 9040
  WARNING 04: minimum elevation drop used for Conduit 9023
  WARNING 04: minimum elevation drop used for Conduit 9619
  WARNING 04: minimum elevation drop used for Conduit 9646
  WARNING 04: minimum elevation drop used for Conduit 9620
  WARNING 04: minimum elevation drop used for Conduit 9645
  WARNING 04: minimum elevation drop used for Conduit 9643
  WARNING 04: minimum elevation drop used for Conduit 9661
  WARNING 04: minimum elevation drop used for Conduit 9663
  WARNING 04: minimum elevation drop used for Conduit 9649
  WARNING 04: minimum elevation drop used for Conduit 9618
  WARNING 04: minimum elevation drop used for Conduit 9647
  WARNING 04: minimum elevation drop used for Conduit 9654
  WARNING 04: minimum elevation drop used for Conduit 9609
  WARNING 04: minimum elevation drop used for Conduit 9657
  WARNING 04: minimum elevation drop used for Conduit 9653
  WARNING 04: minimum elevation drop used for Conduit 9652
  WARNING 04: minimum elevation drop used for Conduit C4
  WARNING 04: minimum elevation drop used for Conduit 2
  WARNING 04: minimum elevation drop used for Conduit 4
  WARNING 04: minimum elevation drop used for Conduit 17
  WARNING 04: minimum elevation drop used for Conduit 26
  WARNING 04: minimum elevation drop used for Conduit 33
  WARNING 02: maximum depth increased for Node N6
  WARNING 02: maximum depth increased for Node N7
  WARNING 02: maximum depth increased for Node N21
  WARNING 02: maximum depth increased for Node N22
  WARNING 02: maximum depth increased for Node N23
  WARNING 02: maximum depth increased for Node J1
  WARNING 02: maximum depth increased for Node J4
  WARNING 02: maximum depth increased for Node J5
  WARNING 02: maximum depth increased for Node Node1
  WARNING 02: maximum depth increased for Node Node100
  WARNING 02: maximum depth increased for Node Node101
  WARNING 02: maximum depth increased for Node Node103
  WARNING 02: maximum depth increased for Node Node104
  WARNING 02: maximum depth increased for Node Node105
  WARNING 02: maximum depth increased for Node Node106
  WARNING 02: maximum depth increased for Node Node111
  WARNING 02: maximum depth increased for Node Node112
  WARNING 02: maximum depth increased for Node Node113
  WARNING 02: maximum depth increased for Node Node114
  WARNING 02: maximum depth increased for Node Node115
  WARNING 02: maximum depth increased for Node Node116
  WARNING 02: maximum depth increased for Node Node117
  WARNING 02: maximum depth increased for Node Node118
  WARNING 02: maximum depth increased for Node Node119
  WARNING 02: maximum depth increased for Node Node120
  WARNING 02: maximum depth increased for Node Node121
  WARNING 02: maximum depth increased for Node Node127
  WARNING 02: maximum depth increased for Node Node130
  WARNING 02: maximum depth increased for Node Node131
  WARNING 02: maximum depth increased for Node Node132
  WARNING 02: maximum depth increased for Node Node133
  WARNING 02: maximum depth increased for Node Node134
  WARNING 02: maximum depth increased for Node Node135
  WARNING 02: maximum depth increased for Node Node136
  WARNING 02: maximum depth increased for Node Node137
  WARNING 02: maximum depth increased for Node Node139
  WARNING 02: maximum depth increased for Node Node140
  WARNING 02: maximum depth increased for Node Node141
  WARNING 02: maximum depth increased for Node Node144
  WARNING 02: maximum depth increased for Node Node147
  WARNING 02: maximum depth increased for Node Node148
  WARNING 02: maximum depth increased for Node Node149
  WARNING 02: maximum depth increased for Node Node150
  WARNING 02: maximum depth increased for Node Node166
  WARNING 02: maximum depth increased for Node Node167
  WARNING 02: maximum depth increased for Node Node168
  WARNING 02: maximum depth increased for Node Node169
  WARNING 02: maximum depth increased for Node Node170
  WARNING 02: maximum depth increased for Node Node175
  WARNING 02: maximum depth increased for Node Node176
  WARNING 02: maximum depth increased for Node Node177
  WARNING 02: maximum depth increased for Node Node178
  WARNING 02: maximum depth increased for Node Node182
  WARNING 02: maximum depth increased for Node Node183
  WARNING 02: maximum depth increased for Node Node184
  WARNING 02: maximum depth increased for Node Node185
  WARNING 02: maximum depth increased for Node Node189
  WARNING 02: maximum depth increased for Node Node192
  WARNING 02: maximum depth increased for Node Node193
  WARNING 02: maximum depth increased for Node Node194
  WARNING 02: maximum depth increased for Node Node195
  WARNING 02: maximum depth increased for Node Node198
  WARNING 02: maximum depth increased for Node Node199
  WARNING 02: maximum depth increased for Node Node2
  WARNING 02: maximum depth increased for Node Node200
  WARNING 02: maximum depth increased for Node Node201
  WARNING 02: maximum depth increased for Node Node204
  WARNING 02: maximum depth increased for Node Node206
  WARNING 02: maximum depth increased for Node Node207
  WARNING 02: maximum depth increased for Node Node209
  WARNING 02: maximum depth increased for Node Node210
  WARNING 02: maximum depth increased for Node Node211
  WARNING 02: maximum depth increased for Node Node212
  WARNING 02: maximum depth increased for Node Node213
  WARNING 02: maximum depth increased for Node Node214
  WARNING 02: maximum depth increased for Node Node215
  WARNING 02: maximum depth increased for Node Node216
  WARNING 02: maximum depth increased for Node Node217
  WARNING 02: maximum depth increased for Node Node218
  WARNING 02: maximum depth increased for Node Node219
  WARNING 02: maximum depth increased for Node Node220
  WARNING 02: maximum depth increased for Node Node221
  WARNING 02: maximum depth increased for Node Node224
  WARNING 02: maximum depth increased for Node Node225
  WARNING 02: maximum depth increased for Node Node226
  WARNING 02: maximum depth increased for Node Node227
  WARNING 02: maximum depth increased for Node Node228
  WARNING 02: maximum depth increased for Node Node229
  WARNING 02: maximum depth increased for Node Node23
  WARNING 02: maximum depth increased for Node Node230
  WARNING 02: maximum depth increased for Node Node231
  WARNING 02: maximum depth increased for Node Node232
  WARNING 02: maximum depth increased for Node Node233
  WARNING 02: maximum depth increased for Node Node234
  WARNING 02: maximum depth increased for Node Node235
  WARNING 02: maximum depth increased for Node Node236
  WARNING 02: maximum depth increased for Node Node237
  WARNING 02: maximum depth increased for Node Node238
  WARNING 02: maximum depth increased for Node Node24
  WARNING 02: maximum depth increased for Node Node240
  WARNING 02: maximum depth increased for Node Node241
  WARNING 02: maximum depth increased for Node Node242
  WARNING 02: maximum depth increased for Node Node243
  WARNING 02: maximum depth increased for Node Node250
  WARNING 02: maximum depth increased for Node Node251
  WARNING 02: maximum depth increased for Node Node252
  WARNING 02: maximum depth increased for Node Node29
  WARNING 02: maximum depth increased for Node Node31
  WARNING 02: maximum depth increased for Node Node32
  WARNING 02: maximum depth increased for Node Node34
  WARNING 02: maximum depth increased for Node Node352
  WARNING 02: maximum depth increased for Node Node355
  WARNING 02: maximum depth increased for Node Node358
  WARNING 02: maximum depth increased for Node Node360
  WARNING 02: maximum depth increased for Node Node361
  WARNING 02: maximum depth increased for Node Node362
  WARNING 02: maximum depth increased for Node Node363
  WARNING 02: maximum depth increased for Node Node364
  WARNING 02: maximum depth increased for Node Node365
  WARNING 02: maximum depth increased for Node Node366
  WARNING 02: maximum depth increased for Node Node367
  WARNING 02: maximum depth increased for Node Node369
  WARNING 02: maximum depth increased for Node Node370
  WARNING 02: maximum depth increased for Node Node371
  WARNING 02: maximum depth increased for Node Node374
  WARNING 02: maximum depth increased for Node Node377
  WARNING 02: maximum depth increased for Node Node378
  WARNING 02: maximum depth increased for Node Node379
  WARNING 02: maximum depth increased for Node Node380
  WARNING 02: maximum depth increased for Node Node381
  WARNING 02: maximum depth increased for Node Node382
  WARNING 02: maximum depth increased for Node Node383
  WARNING 02: maximum depth increased for Node Node384
  WARNING 02: maximum depth increased for Node Node385
  WARNING 02: maximum depth increased for Node Node386
  WARNING 02: maximum depth increased for Node Node387
  WARNING 02: maximum depth increased for Node Node388
  WARNING 02: maximum depth increased for Node Node389
  WARNING 02: maximum depth increased for Node Node390
  WARNING 02: maximum depth increased for Node Node391
  WARNING 02: maximum depth increased for Node Node392
  WARNING 02: maximum depth increased for Node Node393
  WARNING 02: maximum depth increased for Node Node394
  WARNING 02: maximum depth increased for Node Node395
  WARNING 02: maximum depth increased for Node Node397
  WARNING 02: maximum depth increased for Node Node4
  WARNING 02: maximum depth increased for Node Node402
  WARNING 02: maximum depth increased for Node Node403
  WARNING 02: maximum depth increased for Node Node404
  WARNING 02: maximum depth increased for Node Node405
  WARNING 02: maximum depth increased for Node Node406
  WARNING 02: maximum depth increased for Node Node407
  WARNING 02: maximum depth increased for Node Node408
  WARNING 02: maximum depth increased for Node Node409
  WARNING 02: maximum depth increased for Node Node410
  WARNING 02: maximum depth increased for Node Node411
  WARNING 02: maximum depth increased for Node Node412
  WARNING 02: maximum depth increased for Node Node413
  WARNING 02: maximum depth increased for Node Node414
  WARNING 02: maximum depth increased for Node Node415
  WARNING 02: maximum depth increased for Node Node416
  WARNING 02: maximum depth increased for Node Node417
  WARNING 02: maximum depth increased for Node Node418
  WARNING 02: maximum depth increased for Node Node419
  WARNING 02: maximum depth increased for Node Node420
  WARNING 02: maximum depth increased for Node Node421
  WARNING 02: maximum depth increased for Node Node422
  WARNING 02: maximum depth increased for Node Node423
  WARNING 02: maximum depth increased for Node Node424
  WARNING 02: maximum depth increased for Node Node425
  WARNING 02: maximum depth increased for Node Node426
  WARNING 02: maximum depth increased for Node Node427
  WARNING 02: maximum depth increased for Node Node428
  WARNING 02: maximum depth increased for Node Node429
  WARNING 02: maximum depth increased for Node Node43
  WARNING 02: maximum depth increased for Node Node430
  WARNING 02: maximum depth increased for Node Node431
  WARNING 02: maximum depth increased for Node Node432
  WARNING 02: maximum depth increased for Node Node433
  WARNING 02: maximum depth increased for Node Node434
  WARNING 02: maximum depth increased for Node Node435
  WARNING 02: maximum depth increased for Node Node436
  WARNING 02: maximum depth increased for Node Node437
  WARNING 02: maximum depth increased for Node Node438
  WARNING 02: maximum depth increased for Node Node439
  WARNING 02: maximum depth increased for Node Node440
  WARNING 02: maximum depth increased for Node Node441
  WARNING 02: maximum depth increased for Node Node442
  WARNING 02: maximum depth increased for Node Node447
  WARNING 02: maximum depth increased for Node Node448
  WARNING 02: maximum depth increased for Node Node449
  WARNING 02: maximum depth increased for Node Node450
  WARNING 02: maximum depth increased for Node Node451
  WARNING 02: maximum depth increased for Node Node452
  WARNING 02: maximum depth increased for Node Node453
  WARNING 02: maximum depth increased for Node Node454
  WARNING 02: maximum depth increased for Node Node455
  WARNING 02: maximum depth increased for Node Node456
  WARNING 02: maximum depth increased for Node Node457
  WARNING 02: maximum depth increased for Node Node458
  WARNING 02: maximum depth increased for Node Node459
  WARNING 02: maximum depth increased for Node Node46
  WARNING 02: maximum depth increased for Node Node460
  WARNING 02: maximum depth increased for Node Node461
  WARNING 02: maximum depth increased for Node Node462
  WARNING 02: maximum depth increased for Node Node463
  WARNING 02: maximum depth increased for Node Node464
  WARNING 02: maximum depth increased for Node Node465
  WARNING 02: maximum depth increased for Node Node466
  WARNING 02: maximum depth increased for Node Node467
  WARNING 02: maximum depth increased for Node Node468
  WARNING 02: maximum depth increased for Node Node469
  WARNING 02: maximum depth increased for Node Node470
  WARNING 02: maximum depth increased for Node Node471
  WARNING 02: maximum depth increased for Node Node472
  WARNING 02: maximum depth increased for Node Node473
  WARNING 02: maximum depth increased for Node Node474
  WARNING 02: maximum depth increased for Node Node475
  WARNING 02: maximum depth increased for Node Node476
  WARNING 02: maximum depth increased for Node Node477
  WARNING 02: maximum depth increased for Node Node478
  WARNING 02: maximum depth increased for Node Node479
  WARNING 02: maximum depth increased for Node Node48
  WARNING 02: maximum depth increased for Node Node481
  WARNING 02: maximum depth increased for Node Node482
  WARNING 02: maximum depth increased for Node Node483
  WARNING 02: maximum depth increased for Node Node484
  WARNING 02: maximum depth increased for Node Node485
  WARNING 02: maximum depth increased for Node Node486
  WARNING 02: maximum depth increased for Node Node487
  WARNING 02: maximum depth increased for Node Node488
  WARNING 02: maximum depth increased for Node Node489
  WARNING 02: maximum depth increased for Node Node49
  WARNING 02: maximum depth increased for Node Node490
  WARNING 02: maximum depth increased for Node Node492
  WARNING 02: maximum depth increased for Node Node493
  WARNING 02: maximum depth increased for Node Node494
  WARNING 02: maximum depth increased for Node Node495
  WARNING 02: maximum depth increased for Node Node496
  WARNING 02: maximum depth increased for Node Node497
  WARNING 02: maximum depth increased for Node Node498
  WARNING 02: maximum depth increased for Node Node50
  WARNING 02: maximum depth increased for Node Node507
  WARNING 02: maximum depth increased for Node Node508
  WARNING 02: maximum depth increased for Node Node509
  WARNING 02: maximum depth increased for Node Node51
  WARNING 02: maximum depth increased for Node Node510
  WARNING 02: maximum depth increased for Node Node511
  WARNING 02: maximum depth increased for Node Node512
  WARNING 02: maximum depth increased for Node Node513
  WARNING 02: maximum depth increased for Node Node52
  WARNING 02: maximum depth increased for Node Node527
  WARNING 02: maximum depth increased for Node Node53
  WARNING 02: maximum depth increased for Node Node537
  WARNING 02: maximum depth increased for Node Node54
  WARNING 02: maximum depth increased for Node Node55
  WARNING 02: maximum depth increased for Node Node553
  WARNING 02: maximum depth increased for Node Node554
  WARNING 02: maximum depth increased for Node Node556
  WARNING 02: maximum depth increased for Node Node557
  WARNING 02: maximum depth increased for Node Node558
  WARNING 02: maximum depth increased for Node Node559
  WARNING 02: maximum depth increased for Node Node56
  WARNING 02: maximum depth increased for Node Node560
  WARNING 02: maximum depth increased for Node Node561
  WARNING 02: maximum depth increased for Node Node562
  WARNING 02: maximum depth increased for Node Node575
  WARNING 02: maximum depth increased for Node Node576
  WARNING 02: maximum depth increased for Node Node577
  WARNING 02: maximum depth increased for Node Node579
  WARNING 02: maximum depth increased for Node Node580
  WARNING 02: maximum depth increased for Node Node581
  WARNING 02: maximum depth increased for Node Node582
  WARNING 02: maximum depth increased for Node Node584
  WARNING 02: maximum depth increased for Node Node585
  WARNING 02: maximum depth increased for Node Node586
  WARNING 02: maximum depth increased for Node Node587
  WARNING 02: maximum depth increased for Node Node588
  WARNING 02: maximum depth increased for Node Node589
  WARNING 02: maximum depth increased for Node Node590
  WARNING 02: maximum depth increased for Node Node591
  WARNING 02: maximum depth increased for Node Node592
  WARNING 02: maximum depth increased for Node Node593
  WARNING 02: maximum depth increased for Node Node594
  WARNING 02: maximum depth increased for Node Node595
  WARNING 02: maximum depth increased for Node Node596
  WARNING 02: maximum depth increased for Node Node597
  WARNING 02: maximum depth increased for Node Node598
  WARNING 02: maximum depth increased for Node Node599
  WARNING 02: maximum depth increased for Node Node6
  WARNING 02: maximum depth increased for Node Node600
  WARNING 02: maximum depth increased for Node Node601
  WARNING 02: maximum depth increased for Node Node602
  WARNING 02: maximum depth increased for Node Node603
  WARNING 02: maximum depth increased for Node Node604
  WARNING 02: maximum depth increased for Node Node605
  WARNING 02: maximum depth increased for Node Node611
  WARNING 02: maximum depth increased for Node Node612
  WARNING 02: maximum depth increased for Node Node618
  WARNING 02: maximum depth increased for Node Node63
  WARNING 02: maximum depth increased for Node Node630
  WARNING 02: maximum depth increased for Node Node631
  WARNING 02: maximum depth increased for Node Node632
  WARNING 02: maximum depth increased for Node Node633
  WARNING 02: maximum depth increased for Node Node634
  WARNING 02: maximum depth increased for Node Node635
  WARNING 02: maximum depth increased for Node Node636
  WARNING 02: maximum depth increased for Node Node637
  WARNING 02: maximum depth increased for Node Node639
  WARNING 02: maximum depth increased for Node Node642
  WARNING 02: maximum depth increased for Node Node643
  WARNING 02: maximum depth increased for Node Node645
  WARNING 02: maximum depth increased for Node Node647
  WARNING 02: maximum depth increased for Node Node71
  WARNING 02: maximum depth increased for Node Node72
  WARNING 02: maximum depth increased for Node Node73
  WARNING 02: maximum depth increased for Node Node74
  WARNING 02: maximum depth increased for Node Node82
  WARNING 02: maximum depth increased for Node Node86
  WARNING 02: maximum depth increased for Node Node90
  WARNING 02: maximum depth increased for Node Node91
  WARNING 02: maximum depth increased for Node Node92
  WARNING 02: maximum depth increased for Node Node96
  WARNING 02: maximum depth increased for Node Node97
  WARNING 02: maximum depth increased for Node Node480
  WARNING 02: maximum depth increased for Node Node646
  WARNING 02: maximum depth increased for Node N35
  WARNING 02: maximum depth increased for Node N40
  WARNING 02: maximum depth increased for Node N41
  WARNING 02: maximum depth increased for Node N42
  WARNING 02: maximum depth increased for Node J42
  
  *********************************************************
  NOTE: The summary statistics displayed in this report are
  based on results found at every computational time step,  
  not just on results from each reporting time step.
  *********************************************************
  
  ****************
  Analysis Options
  ****************
  Flow Units ............... CMS
  Process Models:
    Rainfall/Runoff ........ YES
    RDII ................... NO
    Snowmelt ............... NO
    Groundwater ............ NO
    Flow Routing ........... YES
    Ponding Allowed ........ YES
    Water Quality .......... NO
  Infiltration Method ...... HORTON
  Flow Routing Method ...... DYNWAVE
  Surcharge Method ......... EXTRAN
  Starting Date ............ 12/19/2019 00:00:00
  Ending Date .............. 12/19/2019 06:00:00
  Antecedent Dry Days ...... 0.0
  Report Time Step ......... 00:05:00
  Wet Time Step ............ 00:00:30
  Dry Time Step ............ 00:10:00
  Routing Time Step ........ 30.00 sec
  Variable Time Step ....... YES
  Maximum Trials ........... 8
  Number of Threads ........ 1
  Head Tolerance ........... 0.001500 m
  
  
  **************************        Volume         Depth
  Runoff Quantity Continuity     hectare-m            mm
  **************************     ---------       -------
  Total Precipitation ......       111.568       132.170
  Evaporation Loss .........         0.000         0.000
  Infiltration Loss ........         1.319         1.563
  Surface Runoff ...........        87.211       103.315
  Final Storage ............        23.086        27.349
  Continuity Error (%) .....        -0.044
  
  
  **************************        Volume        Volume
  Flow Routing Continuity        hectare-m      10^6 ltr
  **************************     ---------     ---------
  Dry Weather Inflow .......         0.000         0.000
  Wet Weather Inflow .......        87.161       871.621
  Groundwater Inflow .......         0.000         0.000
  RDII Inflow ..............         0.000         0.000
  External Inflow ..........         0.000         0.000
  External Outflow .........        90.591       905.917
  Flooding Loss ............         0.000         0.000
  Evaporation Loss .........         0.000         0.000
  Exfiltration Loss ........         0.000         0.000
  Initial Stored Volume ....        37.694       376.945
  Final Stored Volume ......        37.631       376.311
  Continuity Error (%) .....        -2.696
  
  
  *************************
  Highest Continuity Errors
  *************************
  Node Node614 (-303737.19%)
  Node Node550 (-1674.73%)
  Node Node548 (-461.43%)
  Node Node544 (-392.37%)
  Node Node546 (-349.73%)
  
  
  ***************************
  Time-Step Critical Elements
  ***************************
  Link 3052 (96.69%)
  Link 8035 (2.11%)
  
  
  ********************************
  Highest Flow Instability Indexes
  ********************************
  Link 4 (13)
  Link 9042 (12)
  Link 3067 (11)
  Link 9043 (11)
  Link 9512 (8)
  
  
  *************************
  Routing Time Step Summary
  *************************
  Minimum Time Step           :     0.50 sec
  Average Time Step           :     0.50 sec
  Maximum Time Step           :     0.50 sec
  Percent in Steady State     :     0.00
  Average Iterations per Step :     2.70
  Percent Not Converging      :     2.93
  Time Step Frequencies       :
     30.000 - 13.228 sec      :     0.00 %
     13.228 -  5.833 sec      :     0.00 %
      5.833 -  2.572 sec      :     0.00 %
      2.572 -  1.134 sec      :     0.00 %
      1.134 -  0.500 sec      :   100.00 %
  
  
  ***************************
  Subcatchment Runoff Summary
  ***************************
  
  ------------------------------------------------------------------------------------------------------------------------------
                            Total      Total      Total      Total     Imperv       Perv      Total       Total     Peak  Runoff
                           Precip      Runon       Evap      Infil     Runoff     Runoff     Runoff      Runoff   Runoff   Coeff
  Subcatchment                 mm         mm         mm         mm         mm         mm         mm    10^6 ltr      CMS
  ------------------------------------------------------------------------------------------------------------------------------
  1                        132.17       0.00       0.00       2.48      36.54      51.17      87.71       12.14     1.57   0.664
  10078B                   132.17       0.00       0.00       1.06      84.58      32.91     117.49        3.53     0.62   0.889
  1009B                    132.17       0.00       0.00       1.06      73.86      25.18      99.05       10.27     1.26   0.749
  1010B                    132.17       0.00       0.00       1.06      83.52      32.09     115.61        4.11     0.68   0.875
  10252B                   132.17       0.00       0.00       1.06      81.70      30.70     112.40        7.30     1.10   0.850
  10340B                   132.17       0.00       0.00       1.06      84.06      32.51     116.58        3.22     0.55   0.882
  10428B                   132.17       0.00       0.00       1.06      80.38      29.71     110.09        9.85     1.40   0.833
  10516B                   132.17       0.00       0.00       1.06      80.68      29.93     110.61        9.07     1.31   0.837
  10604B                   132.17       0.00       0.00       1.06      81.57      30.60     112.17        6.07     0.91   0.849
  10692B                   132.17       0.00       0.00       1.06      81.98      30.91     112.90        6.07     0.93   0.854
  11040B                   132.17       0.00       0.00       1.06      83.06      31.74     114.79        3.35     0.54   0.869
  11128B                   132.17       0.00       0.00       1.06      83.84      32.34     116.18        2.41     0.41   0.879
  11129B                   132.17       0.00       0.00       1.06      86.51      34.39     120.90        1.48     0.30   0.915
  11216B                   132.17       0.00       0.00       1.06      83.50      32.08     115.57        4.06     0.67   0.874
  11304B                   132.17       0.00       0.00       1.06      83.56      32.12     115.68        4.15     0.69   0.875
  11650B                   132.17       0.00       0.00       1.06      79.65      29.16     108.81        6.55     0.91   0.823
  11738B                   132.17       0.00       0.00       1.06      86.16      34.13     120.29        1.77     0.35   0.910
  11739B                   132.17       0.00       0.00       1.06      85.50      33.62     119.13        1.77     0.33   0.901
  11912B                   132.17       0.00       0.00       1.06      83.97      32.44     116.41        3.55     0.61   0.881
  12086B                   132.17       0.00       0.00       1.06      84.29      32.69     116.98        3.20     0.56   0.885
  12087B                   132.17       0.00       0.00       1.06      81.38      30.46     111.84        4.12     0.61   0.846
  12290B                   132.17       0.00       0.00       1.06      84.50      32.85     117.36        3.26     0.57   0.888
  12465B                   132.17       0.00       0.00       1.06      85.80      33.85     119.66        1.62     0.31   0.905
  12552B                   132.17       0.00       0.00       1.06      87.63      35.22     122.85        0.72     0.16   0.929
  12726B                   132.17       0.00       0.00       1.06      85.06      33.28     118.34        2.38     0.43   0.895
  12814B                   132.17       0.00       0.00       1.06      85.71      33.78     119.49        1.49     0.29   0.904
  12902B                   132.17       0.00       0.00       1.06      85.37      33.52     118.88        1.60     0.30   0.899
  12990B                   132.17       0.00       0.00       1.06      84.90      33.16     118.06        2.77     0.50   0.893
  13166B                   132.17       0.00       0.00       1.06      85.42      33.56     118.99        2.12     0.40   0.900
  13340B                   132.17       0.00       0.00       1.06      84.97      33.21     118.18        2.92     0.53   0.894
  13428B                   132.17       0.00       0.00       1.06      85.81      33.86     119.67        1.53     0.29   0.905
  13688B                   132.17       0.00       0.00       1.06      86.61      34.46     121.07        1.31     0.27   0.916
  13776B                   132.17       0.00       0.00       1.06      87.35      35.01     122.36        0.89     0.20   0.926
  13950B                   132.17       0.00       0.00       1.06      83.29      31.91     115.20        5.92     0.97   0.872
  14124B                   132.17       0.00       0.00       1.06      85.92      33.94     119.86        1.32     0.26   0.907
  14212B                   132.17       0.00       0.00       1.06      87.03      34.78     121.82        0.94     0.20   0.922
  14386B                   132.17       0.00       0.00       1.06      85.86      33.89     119.75        2.00     0.39   0.906
  14474B                   132.17       0.00       0.00       1.06      83.55      32.12     115.66        4.50     0.75   0.875
  14911B                   132.17       0.00       0.00       1.06      87.47      35.11     122.58        3.11     0.69   0.927
  15173B                   132.17       0.00       0.00       1.06      85.29      33.46     118.75        1.67     0.31   0.898
  15261B                   132.17       0.00       0.00       1.06      84.98      33.22     118.19        2.65     0.48   0.894
  15349B                   132.17       0.00       0.00       1.06      84.89      33.15     118.03        2.48     0.45   0.893
  15523B                   132.17       0.00       0.00       1.06      83.25      31.89     115.14        4.55     0.75   0.871
  15611B                   132.17       0.00       0.00       1.06      84.07      32.52     116.59        3.72     0.64   0.882
  15699B                   132.17       0.00       0.00       1.06      88.29      35.70     123.99        1.61     0.39   0.938
  15700B                   132.17       0.00       0.00       1.06      82.91      31.63     114.54        5.14     0.83   0.867
  16073B                   132.17       0.00       0.00       1.06      88.69      35.98     124.67        0.35     0.09   0.943
  16074B                   132.17       0.00       0.00       1.06      88.87      36.11     124.98        0.28     0.07   0.946
  16339B                   132.17       0.00       0.00       1.06      88.73      36.01     124.74        0.35     0.09   0.944
  16340B                   132.17       0.00       0.00       1.06      88.98      36.19     125.18        0.31     0.08   0.947
  16871B                   132.17       0.00       0.00       1.06      88.39      35.77     124.16        0.44     0.11   0.939
  16872B                   132.17       0.00       0.00       1.06      88.62      35.93     124.55        0.38     0.09   0.942
  17218B                   132.17       0.00       0.00       1.06      86.17      34.13     120.30        1.58     0.31   0.910
  17479B                   132.17       0.00       0.00       1.06      83.84      32.34     116.19        2.02     0.34   0.879
  17566B                   132.17       0.00       0.00       1.06      82.18      31.06     113.25        6.53     1.01   0.857
  17740B                   132.17       0.00       0.00       1.06      87.70      35.27     122.97        0.76     0.17   0.930
  17828B                   132.17       0.00       0.00       1.06      87.25      34.94     122.19        1.08     0.23   0.924
  18262B                   132.17       0.00       0.00       1.06      86.33      34.25     120.58        0.60     0.12   0.912
  18350B                   132.17       0.00       0.00       1.06      86.15      34.12     120.27        1.29     0.26   0.910
  18524B                   132.17       0.00       0.00       1.06      84.10      32.54     116.64        3.88     0.67   0.882
  18525B                   132.17       0.00       0.00       1.06      83.48      32.06     115.54        4.51     0.75   0.874
  18796B                   132.17       0.00       0.00       1.06      88.61      35.93     124.54        0.40     0.10   0.942
  18970B                   132.17       0.00       0.00       1.06      85.40      33.54     118.94        1.47     0.27   0.900
  19057B                   132.17       0.00       0.00       1.06      88.29      35.70     123.98        0.30     0.07   0.938
  19403B                   132.17       0.00       0.00       1.06      86.92      34.70     121.61        1.12     0.24   0.920
  19491B                   132.17       0.00       0.00       1.06      86.81      34.61     121.42        1.50     0.31   0.919
  1B                       132.17       0.00       0.00       2.48      33.42      29.02      62.43       36.96     4.03   0.472
  2                        132.17       0.00       0.00       2.48      36.91      55.46      92.38       10.62     1.45   0.699
  2001                     132.17       0.00       0.00       1.06      86.22      34.17     120.39        0.45     0.09   0.911
  20056B                   132.17       0.00       0.00       1.06      83.38      31.99     115.37        3.85     0.63   0.873
  2007                     132.17       0.00       0.00       1.06      82.95      31.65     114.61        4.16     0.67   0.867
  2008                     132.17       0.00       0.00       1.06      86.23      34.18     120.40        1.84     0.37   0.911
  2009                     132.17       0.00       0.00       1.06      85.66      33.74     119.40        2.20     0.42   0.903
  2014                     132.17       0.00       0.00       1.06      86.74      34.57     121.31        1.18     0.24   0.918
  2015                     132.17       0.00       0.00       1.06      85.54      33.65     119.20        2.30     0.44   0.902
  2016                     132.17       0.00       0.00       1.06      87.60      35.20     122.80        0.28     0.06   0.929
  2017                     132.17       0.00       0.00       1.06      85.27      33.44     118.71        2.18     0.40   0.898
  2065                     132.17       0.00       0.00       1.06      87.93      35.44     123.37        0.46     0.11   0.933
  20666B                   132.17       0.00       0.00       1.06      82.83      31.56     114.39        4.82     0.77   0.865
  2069                     132.17       0.00       0.00       1.06      84.42      32.79     117.20        3.04     0.53   0.887
  206B                     132.17       0.00       0.00       1.06      84.94      33.19     118.13        2.00     0.36   0.894
  2071B                    132.17       0.00       0.00       1.06      85.13      33.34     118.46        0.90     0.17   0.896
  20754B                   132.17       0.00       0.00       1.06      84.76      33.05     117.81        3.12     0.56   0.891
  20755B                   132.17       0.00       0.00       1.06      78.59      28.39     106.98        7.36     1.00   0.809
  2076B                    132.17       0.00       0.00       1.06      79.69      29.19     108.89        6.53     0.91   0.824
  2083B                    132.17       0.00       0.00       1.06      87.02      34.77     121.80        0.89     0.19   0.922
  208B                     132.17       0.00       0.00       1.06      85.82      33.87     119.69        1.12     0.22   0.906
  2090B                    132.17       0.00       0.00       1.06      82.97      31.67     114.64        4.19     0.68   0.867
  2091B                    132.17       0.00       0.00       1.06      87.48      35.11     122.58        0.59     0.13   0.927
  20929B                   132.17       0.00       0.00       1.06      85.78      33.84     119.62        1.63     0.31   0.905
  2096B                    132.17       0.00       0.00       1.06      85.20      33.39     118.58        2.65     0.49   0.897
  2097B                    132.17       0.00       0.00       1.06      85.46      33.59     119.06        1.96     0.37   0.901
  2098B                    132.17       0.00       0.00       1.06      86.32      34.24     120.56        1.29     0.26   0.912
  2100B                    132.17       0.00       0.00       1.06      85.72      33.79     119.51        1.76     0.34   0.904
  2102B                    132.17       0.00       0.00       1.06      88.73      36.01     124.74        0.24     0.06   0.944
  2104B                    132.17       0.00       0.00       1.06      86.26      34.20     120.47        1.22     0.24   0.911
  2106B                    132.17       0.00       0.00       1.06      88.07      35.54     123.61        0.51     0.12   0.935
  2108B                    132.17       0.00       0.00       1.06      83.68      32.22     115.90        4.34     0.73   0.877
  2109B                    132.17       0.00       0.00       1.06      74.91      25.87     100.78       15.15     1.90   0.763
  210B                     132.17       0.00       0.00       1.06      84.89      33.16     118.05        2.29     0.41   0.893
  21105B                   132.17       0.00       0.00       1.06      85.94      33.96     119.89        1.97     0.38   0.907
  2110B                    132.17       0.00       0.00       1.06      80.41      29.73     110.13        6.88     0.98   0.833
  2116B                    132.17       0.00       0.00       1.06      82.28      31.14     113.43        2.51     0.39   0.858
  2118B                    132.17       0.00       0.00       1.06      82.21      31.09     113.30        6.15     0.95   0.857
  211B                     132.17       0.00       0.00       1.06      81.35      30.44     111.79        2.22     0.33   0.846
  2120B                    132.17       0.00       0.00       1.06      82.39      31.23     113.62        4.71     0.74   0.860
  2124B                    132.17       0.00       0.00       1.06      83.86      32.36     116.22        3.61     0.61   0.879
  2126B                    132.17       0.00       0.00       1.06      86.78      34.59     121.37        1.08     0.22   0.918
  21279B                   132.17       0.00       0.00       1.06      83.67      32.21     115.88        3.95     0.66   0.877
  2128B                    132.17       0.00       0.00       1.06      86.59      34.45     121.04        1.13     0.23   0.916
  2130B                    132.17       0.00       0.00       1.06      85.85      33.89     119.74        1.34     0.26   0.906
  2134B                    132.17       0.00       0.00       1.06      86.07      34.06     120.13        1.76     0.35   0.909
  2136B                    132.17       0.00       0.00       1.06      88.00      35.49     123.50        0.50     0.12   0.934
  213B                     132.17       0.00       0.00       1.06      74.27      25.45      99.72        3.18     0.39   0.754
  2140B                    132.17       0.00       0.00       1.06      86.40      34.31     120.71        1.00     0.20   0.913
  2141B                    132.17       0.00       0.00       1.06      85.51      33.63     119.13        1.58     0.30   0.901
  2142B                    132.17       0.00       0.00       1.06      82.63      31.40     114.03        2.02     0.32   0.863
  2146B                    132.17       0.00       0.00       1.06      85.69      33.77     119.46        2.23     0.43   0.904
  2148B                    132.17       0.00       0.00       1.06      82.62      31.40     114.02        5.15     0.82   0.863
  2150B                    132.17       0.00       0.00       1.06      86.10      34.08     120.18        1.12     0.22   0.909
  2153B                    132.17       0.00       0.00       1.06      87.95      35.46     123.41        0.38     0.09   0.934
  2154B                    132.17       0.00       0.00       1.06      84.15      32.58     116.73        2.10     0.36   0.883
  2158B                    132.17       0.00       0.00       1.06      85.66      33.75     119.41        0.88     0.17   0.903
  2160B                    132.17       0.00       0.00       1.06      84.12      32.56     116.68        3.59     0.62   0.883
  2162B                    132.17       0.00       0.00       1.06      83.52      32.10     115.62        4.21     0.70   0.875
  2166B                    132.17       0.00       0.00       1.06      86.85      34.65     121.50        1.21     0.25   0.919
  2170B                    132.17       0.00       0.00       1.06      87.06      34.80     121.86        1.25     0.27   0.922
  2173B                    132.17       0.00       0.00       1.06      85.69      33.76     119.45        0.81     0.15   0.904
  2174B                    132.17       0.00       0.00       1.06      86.90      34.69     121.59        0.90     0.19   0.920
  2176B                    132.17       0.00       0.00       1.06      86.91      34.69     121.59        0.82     0.17   0.920
  2178B                    132.17       0.00       0.00       1.06      87.58      35.18     122.76        0.50     0.11   0.929
  21799B                   132.17       0.00       0.00       1.06      88.47      35.83     124.29        0.40     0.10   0.940
  21800B                   132.17       0.00       0.00       1.06      88.19      35.63     123.81        0.54     0.13   0.937
  2180B                    132.17       0.00       0.00       1.06      87.95      35.45     123.40        0.55     0.13   0.934
  2182B                    132.17       0.00       0.00       1.06      84.99      33.23     118.23        1.77     0.32   0.895
  2186B                    132.17       0.00       0.00       1.06      82.31      31.16     113.47        0.99     0.15   0.859
  22059B                   132.17       0.00       0.00       1.06      82.62      31.40     114.02        5.19     0.82   0.863
  22147B                   132.17       0.00       0.00       1.06      83.62      32.17     115.79        3.42     0.57   0.876
  22148B                   132.17       0.00       0.00       1.06      85.45      33.59     119.04        2.47     0.46   0.901
  22235B                   132.17       0.00       0.00       1.06      86.60      34.46     121.06        1.29     0.27   0.916
  22323B                   132.17       0.00       0.00       1.06      86.72      34.55     121.27        1.24     0.26   0.918
  22324B                   132.17       0.00       0.00       1.06      84.78      33.07     117.84        3.05     0.55   0.892
  22584B                   132.17       0.00       0.00       1.06      85.02      33.25     118.27        2.50     0.46   0.895
  22671B                   132.17       0.00       0.00       1.06      87.07      34.81     121.88        0.91     0.20   0.922
  22672B                   132.17       0.00       0.00       1.06      84.72      33.02     117.74        2.80     0.50   0.891
  22759B                   132.17       0.00       0.00       1.06      85.48      33.60     119.08        1.40     0.26   0.901
  23019B                   132.17       0.00       0.00       1.06      84.94      33.19     118.14        2.08     0.38   0.894
  23020B                   132.17       0.00       0.00       1.06      85.30      33.47     118.76        2.00     0.37   0.899
  3                        132.17       0.00       0.00       2.48      35.74      43.43      79.17        9.51     1.13   0.599
  24                       132.17       0.00       0.00       2.48      36.87      54.96      91.83       14.33     1.94   0.695
  25                       132.17       0.00       0.00       2.48      36.94      55.83      92.77       13.79     1.89   0.702
  26                       132.17       0.00       0.00       2.48      36.90      55.25      92.15       13.12     1.78   0.697
  27                       132.17       0.00       0.00       2.48      35.70      43.08      78.77       31.44     3.74   0.596
  28                       132.17       0.00       0.00       2.48      36.79      54.05      90.85       12.45     1.67   0.687
  29                       132.17       0.00       0.00       2.48      36.78      53.90      90.69       20.99     2.81   0.686
  30                       132.17       0.00       0.00       2.48      36.30      48.67      84.97       12.11     1.53   0.643
  3050B                    132.17       0.00       0.00       1.06      87.40      35.06     122.46        0.91     0.20   0.927
  31                       132.17       0.00       0.00       2.48      36.50      50.77      87.27        7.99     1.03   0.660
  3144B                    132.17       0.00       0.00       1.06      78.12      28.06     106.18        7.23     0.97   0.803
  3176B                    132.17       0.00       0.00       1.06      84.49      32.85     117.34        2.89     0.51   0.888
  32                       132.17       0.00       0.00       2.48      36.87      54.98      91.85       12.91     1.75   0.695
  3238B                    132.17       0.00       0.00       1.06      83.36      31.97     115.32        3.86     0.64   0.873
  329                      132.17       0.00       0.00       1.06      87.30      34.98     122.28        0.70     0.15   0.925
  3332B                    132.17       0.00       0.00       1.06      85.58      33.69     119.27        1.63     0.31   0.902
  3644B                    132.17       0.00       0.00       1.06      85.04      33.27     118.30        1.57     0.29   0.895
  3708B                    132.17       0.00       0.00       1.06      85.23      33.41     118.64        2.40     0.44   0.898
  3740B                    132.17       0.00       0.00       1.06      87.17      34.89     122.06        0.97     0.21   0.923
  3986B                    132.17       0.00       0.00       1.06      74.23      25.42      99.65        2.87     0.35   0.754
  4                        132.17       0.00       0.00       2.48      35.66      42.79      78.45        6.72     0.80   0.594
  4233B                    132.17       0.00       0.00       1.06      85.14      33.34     118.48        1.85     0.34   0.896
  4357B                    132.17       0.00       0.00       1.06      85.87      33.91     119.78        2.00     0.39   0.906
  4481B                    132.17       0.00       0.00       1.06      88.25      35.67     123.93        0.51     0.12   0.938
  4482B                    132.17       0.00       0.00       1.06      87.84      35.38     123.22        0.67     0.15   0.932
  4637B                    132.17       0.00       0.00       1.06      88.30      35.71     124.01        0.25     0.06   0.938
  4669B                    132.17       0.00       0.00       1.06      87.30      34.98     122.28        0.90     0.20   0.925
  4791B                    132.17       0.00       0.00       1.06      89.90      36.83     126.73        0.16     0.05   0.959
  4792B                    132.17       0.00       0.00       1.06      88.38      35.76     124.15        0.43     0.10   0.939
  4823B                    132.17       0.00       0.00       1.06      86.87      34.66     121.52        0.96     0.20   0.919
  4885B                    132.17       0.00       0.00       1.06      89.78      36.74     126.52        0.07     0.02   0.957
  4886B                    132.17       0.00       0.00       1.06      88.09      35.56     123.65        0.50     0.12   0.936
  5                        132.17       0.00       0.00       2.48      37.41      61.80      99.21        8.21     1.21   0.751
  5102B                    132.17       0.00       0.00       1.06      87.08      34.81     121.89        0.66     0.14   0.922
  5268B                    132.17       0.00       0.00       1.06      86.77      34.58     121.35        1.35     0.28   0.918
  5325B                    132.17       0.00       0.00       1.06      85.84      33.88     119.72        1.97     0.38   0.906
  5493B                    132.17       0.00       0.00       1.06      88.99      36.20     125.19        0.34     0.09   0.947
  5549B                    132.17       0.00       0.00       1.06      87.93      35.44     123.37        0.60     0.14   0.933
  5606B                    132.17       0.00       0.00       1.06      87.35      35.02     122.37        0.68     0.15   0.926
  5830B                    132.17       0.00       0.00       1.06      88.37      35.76     124.13        0.46     0.11   0.939
  6012                     132.17       0.00       0.00       1.06      85.23      33.41     118.64        2.15     0.40   0.898
  6781B                    132.17       0.00       0.00       1.06      87.32      34.99     122.31        1.01     0.22   0.925
  7001                     132.17       0.00       0.00       1.06      84.67      32.98     117.65        2.60     0.46   0.890
  7006B                    132.17       0.00       0.00       1.06      83.78      32.30     116.08        1.07     0.18   0.878
  7118B                    132.17       0.00       0.00       1.06      88.69      35.98     124.67        0.32     0.08   0.943
  7174B                    132.17       0.00       0.00       1.06      88.38      35.76     124.14        0.38     0.09   0.939
  7233B                    132.17       0.00       0.00       1.06      88.94      36.16     125.10        0.28     0.07   0.946
  7318B                    132.17       0.00       0.00       1.06      87.79      35.34     123.14        0.72     0.17   0.932
  7399B                    132.17       0.00       0.00       1.06      89.18      36.33     125.50        0.24     0.06   0.950
  7507B                    132.17       0.00       0.00       1.06      90.35      37.13     127.48        0.12     0.04   0.965
  7508B                    132.17       0.00       0.00       1.06      88.51      35.86     124.37        0.42     0.10   0.941
  7616B                    132.17       0.00       0.00       1.06      88.58      35.90     124.48        0.41     0.10   0.942
  7780B                    132.17       0.00       0.00       1.06      84.08      32.53     116.61        4.02     0.69   0.882
  7835B                    132.17       0.00       0.00       1.06      91.17      37.68     128.85        0.25     0.08   0.975
  7836B                    132.17       0.00       0.00       1.06      81.16      30.29     111.46        9.26     1.37   0.843
  7B                       132.17       0.00       0.00       1.06      83.61      32.16     115.77        4.92     0.82   0.876
  8317B                    132.17       0.00       0.00       1.06      83.88      32.37     116.25        2.87     0.49   0.880
  8400B                    132.17       0.00       0.00       1.06      85.83      33.87     119.70        2.06     0.40   0.906
  8484B                    132.17       0.00       0.00       1.06      83.20      31.85     115.05        4.97     0.81   0.870
  8652B                    132.17       0.00       0.00       1.06      87.55      35.16     122.71        0.52     0.12   0.928
  8736B                    132.17       0.00       0.00       1.06      83.73      32.25     115.98        4.15     0.70   0.878
  8902B                    132.17       0.00       0.00       1.06      82.06      30.97     113.03        5.61     0.86   0.855
  9000                     132.17       0.00       0.00       1.06      87.58      35.18     122.76        0.60     0.13   0.929
  9001                     132.17       0.00       0.00       1.06      87.43      35.08     122.51        0.66     0.15   0.927
  9068B                    132.17       0.00       0.00       1.06      86.05      34.04     120.09        1.92     0.38   0.909
  9318B                    132.17       0.00       0.00       1.06      86.07      34.05     120.12        1.32     0.26   0.909
  9501                     132.17       0.00       0.00       1.06      88.05      35.52     123.57        0.46     0.11   0.935
  9504                     132.17       0.00       0.00       1.06      88.89      36.13     125.02        0.30     0.08   0.946
  9566B                    132.17       0.00       0.00       1.06      85.69      33.77     119.46        1.73     0.33   0.904
  9601                     132.17       0.00       0.00       1.06      85.98      33.99     119.97        1.82     0.36   0.908
  9602                     132.17       0.00       0.00       1.06      76.87      27.18     104.05        1.82     0.24   0.787
  9606                     132.17       0.00       0.00       1.06      84.36      32.74     117.10        3.54     0.62   0.886
  9621                     132.17       0.00       0.00       1.06      81.66      30.67     112.33        6.65     1.00   0.850
  9622                     132.17       0.00       0.00       1.06      86.90      34.68     121.59        1.55     0.33   0.920
  9624                     132.17       0.00       0.00       1.06      84.26      32.66     116.92        1.95     0.34   0.885
  9625                     132.17       0.00       0.00       1.06      81.42      30.48     111.90        7.50     1.12   0.847
  9650B                    132.17       0.00       0.00       1.06      84.80      33.08     117.88        3.37     0.61   0.892
  9707B                    132.17       0.00       0.00       1.06      88.88      36.12     125.00        0.31     0.08   0.946
  S1                       132.17       0.00       0.00       1.06      81.56      30.59     112.15        1.52     0.23   0.849
  S10                      132.17       0.00       0.00       1.06      88.18      35.62     123.81        0.45     0.11   0.937
  S11                      132.17       0.00       0.00       1.06      87.45      35.09     122.55        0.67     0.15   0.927
  S12                      132.17       0.00       0.00       1.06      87.23      34.93     122.16        0.95     0.21   0.924
  S13                      132.17       0.00       0.00       1.06      85.54      33.65     119.18        1.78     0.34   0.902
  S14                      132.17       0.00       0.00       1.06      88.35      35.74     124.09        0.38     0.09   0.939
  S15                      132.17       0.00       0.00       1.06      86.93      34.71     121.64        0.69     0.15   0.920
  S16                      132.17       0.00       0.00       1.06      84.48      32.84     117.32        3.18     0.56   0.888
  S17                      132.17       0.00       0.00       1.06      84.83      33.11     117.94        2.64     0.48   0.892
  S18                      132.17       0.00       0.00       1.06      83.80      32.31     116.11        2.91     0.49   0.878
  S19                      132.17       0.00       0.00       1.06      86.01      34.01     120.01        2.15     0.42   0.908
  S2                       132.17       0.00       0.00       1.06      88.05      35.52     123.57        0.59     0.14   0.935
  S20                      132.17       0.00       0.00       1.06      83.10      31.77     114.87        3.40     0.55   0.869
  S21                      132.17       0.00       0.00       1.06      85.61      33.70     119.31        1.31     0.25   0.903
  S22                      132.17       0.00       0.00       1.06      86.38      34.29     120.67        1.33     0.27   0.913
  S23                      132.17       0.00       0.00       1.06      84.62      32.95     117.57        2.43     0.43   0.890
  S24                      132.17       0.00       0.00       1.06      87.52      35.14     122.66        0.85     0.19   0.928
  S25                      132.17       0.00       0.00       1.06      83.88      32.37     116.25        4.21     0.71   0.880
  S26                      132.17       0.00       0.00       1.06      81.75      30.73     112.48        3.61     0.55   0.851
  S27                      132.17       0.00       0.00       1.06      81.31      30.40     111.71        4.73     0.70   0.845
  S28                      132.17       0.00       0.00       1.06      87.71      35.28     122.99        0.73     0.17   0.931
  S29                      132.17       0.00       0.00       2.48      35.37      40.42      75.79       19.57     2.28   0.573
  S3                       132.17       0.00       0.00       1.06      84.69      33.00     117.69        3.52     0.63   0.890
  S30                      132.17       0.00       0.00       1.06      82.33      31.18     113.51        4.28     0.67   0.859
  S31                      132.17       0.00       0.00       1.06      83.40      32.00     115.41        3.94     0.65   0.873
  S32                      132.17       0.00       0.00       1.06      83.21      31.85     115.06        3.95     0.64   0.871
  S33                      132.17       0.00       0.00       1.06      84.84      33.12     117.96        2.99     0.54   0.892
  S34                      132.17       0.00       0.00       1.06      82.23      31.10     113.33        4.65     0.72   0.857
  S35                      132.17       0.00       0.00       1.06      83.55      32.11     115.66        4.19     0.70   0.875
  S36                      132.17       0.00       0.00       1.06      85.31      33.47     118.78        1.74     0.32   0.899
  S37                      132.17       0.00       0.00       1.06      86.17      34.13     120.30        1.45     0.29   0.910
  S38                      132.17       0.00       0.00       1.06      83.08      31.75     114.83        4.34     0.70   0.869
  S39                      132.17       0.00       0.00       1.06      86.44      34.34     120.78        1.56     0.32   0.914
  S4                       132.17       0.00       0.00       1.06      85.24      33.42     118.66        1.82     0.34   0.898
  S40                      132.17       0.00       0.00       1.06      89.09      36.27     125.36        0.25     0.06   0.949
  S41                      132.17       0.00       0.00       1.06      88.97      36.18     125.15        0.50     0.13   0.947
  S42                      132.17       0.00       0.00       1.06      84.36      32.74     117.10        3.43     0.60   0.886
  S43                      132.17       0.00       0.00       1.06      85.61      33.70     119.31        1.88     0.36   0.903
  S44                      132.17       0.00       0.00       1.06      86.59      34.45     121.04        1.15     0.24   0.916
  S45                      132.17       0.00       0.00       1.06      86.20      34.15     120.35        1.59     0.32   0.911
  S46                      132.17       0.00       0.00       1.06      86.45      34.34     120.79        1.11     0.22   0.914
  S47                      132.17       0.00       0.00       1.06      87.06      34.80     121.86        0.83     0.18   0.922
  S48                      132.17       0.00       0.00       1.06      85.61      33.71     119.32        2.27     0.43   0.903
  S49                      132.17       0.00       0.00       1.06      83.85      32.35     116.20        4.49     0.76   0.879
  S5                       132.17       0.00       0.00       1.06      86.93      34.71     121.64        0.98     0.21   0.920
  S50                      132.17       0.00       0.00       1.06      87.34      35.01     122.35        0.98     0.22   0.926
  S51                      132.17       0.00       0.00       1.06      86.18      34.14     120.32        1.29     0.25   0.910
  S52                      132.17       0.00       0.00       1.06      85.53      33.65     119.18        1.59     0.30   0.902
  S53                      132.17       0.00       0.00       1.06      86.68      34.52     121.21        0.95     0.20   0.917
  S54                      132.17       0.00       0.00       1.06      84.10      32.54     116.65        1.69     0.29   0.883
  S55                      132.17       0.00       0.00       1.06      85.71      33.79     119.50        2.18     0.42   0.904
  S56                      132.17       0.00       0.00       1.06      87.75      35.31     123.07        0.65     0.15   0.931
  S57                      132.17       0.00       0.00       1.06      88.15      35.60     123.74        0.57     0.14   0.936
  S58                      132.17       0.00       0.00       1.06      86.45      34.34     120.79        1.26     0.26   0.914
  S59                      132.17       0.00       0.00       1.06      87.15      34.87     122.02        0.97     0.21   0.923
  S6                       132.17       0.00       0.00       1.06      89.53      36.57     126.10        0.20     0.05   0.954
  S60                      132.17       0.00       0.00       1.06      85.83      33.87     119.70        1.97     0.38   0.906
  S61                      132.17       0.00       0.00       1.06      85.81      33.86     119.66        1.24     0.24   0.905
  S62                      132.17       0.00       0.00       1.06      87.80      35.34     123.14        0.64     0.15   0.932
  S63                      132.17       0.00       0.00       1.06      84.81      33.09     117.90        2.65     0.48   0.892
  S64                      132.17       0.00       0.00       1.06      83.86      32.36     116.22        3.97     0.67   0.879
  S65                      132.17       0.00       0.00       1.06      88.42      35.79     124.22        0.44     0.11   0.940
  S66                      132.17       0.00       0.00       1.06      89.58      36.61     126.19        0.23     0.06   0.955
  S7                       132.17       0.00       0.00       1.06      84.29      32.69     116.98        2.90     0.50   0.885
  S8                       132.17       0.00       0.00       1.06      83.76      32.28     116.04        4.55     0.77   0.878
  S9                       132.17       0.00       0.00       1.06      87.62      35.21     122.83        0.54     0.12   0.929
  
  
  ******************
  Node Depth Summary
  ******************
  
  ---------------------------------------------------------------------------------
                                 Average  Maximum  Maximum  Time of Max    Reported
                                   Depth    Depth      HGL   Occurrence   Max Depth
  Node                 Type       Meters   Meters   Meters  days hr:min      Meters
  ---------------------------------------------------------------------------------
  N6                   JUNCTION     0.52     0.90     3.27     0  00:00        0.71
  N7                   JUNCTION     0.70     0.91     3.14     0  00:00        0.89
  N8                   JUNCTION     1.08     1.41     3.05     0  03:23        1.41
  N9                   JUNCTION     2.90     4.00     1.94     0  00:00        3.81
  N11                  JUNCTION     3.03     4.00     1.81     0  00:00        3.94
  N12                  JUNCTION     0.94     2.00     1.97     0  00:00        1.78
  N13                  JUNCTION     2.94     4.00     1.90     0  00:00        3.86
  N14                  JUNCTION     0.20     0.63     1.68     0  04:24        0.63
  N15                  JUNCTION     0.13     0.60     1.81     0  00:00        0.49
  N16                  JUNCTION     0.18     0.64     1.70     0  04:16        0.64
  N17                  JUNCTION     0.10     0.60     1.89     0  00:00        0.41
  N18                  JUNCTION     0.12     0.60     1.85     0  00:00        0.43
  N19                  JUNCTION     0.09     0.60     1.93     0  00:00        0.37
  N20                  JUNCTION     1.13     2.04     1.75     0  04:08        2.04
  N21                  JUNCTION     0.53     1.30     4.98     0  03:12        1.29
  N22                  JUNCTION     0.94     1.51     3.77     0  04:21        1.51
  N23                  JUNCTION     1.11     1.67     3.87     0  05:12        1.67
  N33                  JUNCTION     1.25     2.12     1.75     0  04:15        2.12
  N34                  JUNCTION     1.22     2.14     1.76     0  04:10        2.14
  J1                   JUNCTION     1.41     1.84     4.18     0  05:40        1.84
  J2                   JUNCTION     0.19     0.65     2.30     0  03:25        0.65
  J4                   JUNCTION     0.02     0.60     2.13     0  00:00        0.24
  J5                   JUNCTION     0.00     0.60     2.14     0  00:00        0.05
  Node1                JUNCTION     1.27     2.57     2.50     0  00:01        2.24
  Node10               JUNCTION     1.12     2.02     2.00     0  00:00        1.92
  Node100              JUNCTION     1.61     1.89     3.08     0  05:12        1.89
  Node101              JUNCTION     1.61     1.89     3.08     0  05:02        1.89
  Node102              JUNCTION     1.24     1.51     3.08     0  05:05        1.51
  Node103              JUNCTION     0.84     1.11     3.08     0  05:06        1.11
  Node104              JUNCTION     0.59     0.89     3.13     0  03:12        0.88
  Node105              JUNCTION     0.21     0.60     3.34     0  00:00        0.39
  Node106              JUNCTION     0.17     0.60     3.38     0  00:00        0.35
  Node107              JUNCTION     0.64     1.00     3.17     0  00:00        0.90
  Node108              JUNCTION     0.78     1.04     3.06     0  06:00        1.04
  Node109              JUNCTION     0.81     1.07     3.06     0  06:00        1.07
  Node11               JUNCTION     1.12     2.02     2.00     0  00:00        1.92
  Node110              JUNCTION     0.27     0.37     2.56     0  06:00        0.37
  Node111              JUNCTION     1.00     1.30     3.16     0  03:10        1.30
  Node112              JUNCTION     1.26     1.54     3.13     0  03:59        1.54
  Node113              JUNCTION     1.26     1.54     3.13     0  04:00        1.54
  Node114              JUNCTION     1.36     1.63     3.08     0  05:32        1.63
  Node115              JUNCTION     0.92     1.19     3.05     0  06:00        1.19
  Node116              JUNCTION     0.79     1.08     2.98     0  06:00        1.08
  Node117              JUNCTION     0.76     1.08     2.70     0  03:37        1.08
  Node118              JUNCTION     0.76     1.09     2.70     0  03:37        1.09
  Node119              JUNCTION     0.75     1.02     2.53     0  03:31        1.02
  Node12               JUNCTION     0.97     2.02     2.15     0  00:00        1.79
  Node120              JUNCTION     0.67     0.93     2.45     0  03:07        0.92
  Node121              JUNCTION     0.66     0.93     2.45     0  03:07        0.92
  Node123              JUNCTION     0.67     0.93     2.45     0  03:12        0.93
  Node124              JUNCTION     0.66     0.91     2.46     0  04:25        0.91
  Node125              JUNCTION     0.21     0.34     2.27     0  06:00        0.34
  Node126              JUNCTION     0.83     1.08     2.43     0  03:27        1.08
  Node127              JUNCTION     0.25     0.54     2.71     0  03:40        0.53
  Node128              JUNCTION     1.20     1.47     2.98     0  06:00        1.47
  Node129              JUNCTION     1.15     1.42     2.98     0  06:00        1.42
  Node13               JUNCTION     0.99     2.02     2.13     0  00:00        1.80
  Node130              JUNCTION     0.98     1.25     3.05     0  06:00        1.25
  Node131              JUNCTION     0.81     1.08     3.05     0  06:00        1.08
  Node132              JUNCTION     0.69     0.97     3.14     0  03:10        0.97
  Node133              JUNCTION     0.65     0.93     3.14     0  03:10        0.93
  Node134              JUNCTION     1.00     1.30     3.16     0  03:10        1.30
  Node135              JUNCTION     0.99     1.29     3.16     0  03:10        1.29
  Node136              JUNCTION     0.91     1.21     3.16     0  03:11        1.21
  Node137              JUNCTION     0.56     0.86     3.16     0  03:11        0.86
  Node138              JUNCTION     0.51     0.70     1.93     0  04:07        0.70
  Node139              JUNCTION     0.64     1.02     2.12     0  03:38        1.02
  Node14               JUNCTION     0.83     2.00     2.29     0  00:00        1.64
  Node140              JUNCTION     0.43     0.98     2.26     0  03:22        0.97
  Node141              JUNCTION     0.41     0.99     2.27     0  03:21        0.99
  Node143              JUNCTION     0.36     0.90     2.25     0  03:24        0.90
  Node144              JUNCTION     0.81     1.19     2.12     0  03:35        1.19
  Node145              JUNCTION     0.45     0.64     1.93     0  04:09        0.64
  Node146              JUNCTION     0.44     0.63     1.93     0  04:17        0.63
  Node147              JUNCTION     1.15     1.50     2.75     0  04:54        1.50
  Node148              JUNCTION     1.14     1.47     2.67     0  03:08        1.47
  Node149              JUNCTION     0.79     1.42     2.54     0  03:00        1.41
  Node15               JUNCTION     1.10     2.94     3.01     0  00:02        2.44
  Node150              JUNCTION     0.73     1.44     2.54     0  03:00        1.43
  Node152              JUNCTION     0.53     0.83     2.20     0  03:29        0.83
  Node153              JUNCTION     0.55     0.83     2.22     0  03:33        0.83
  Node154              JUNCTION     0.51     0.71     2.15     0  03:57        0.71
  Node155              JUNCTION     0.51     0.71     2.15     0  03:57        0.71
  Node156              JUNCTION     0.46     0.66     2.14     0  04:34        0.66
  Node157              JUNCTION     0.42     0.62     2.15     0  04:06        0.62
  Node158              JUNCTION     0.43     0.63     2.15     0  04:08        0.63
  Node159              JUNCTION     0.41     0.61     2.15     0  04:05        0.61
  Node16               JUNCTION     1.88     2.90     2.25     0  00:07        2.88
  Node160              JUNCTION     0.32     0.60     2.24     0  00:00        0.51
  Node161              JUNCTION     0.54     0.83     2.19     0  03:31        0.83
  Node162              JUNCTION     0.57     0.78     2.06     0  03:51        0.78
  Node163              JUNCTION     0.62     0.83     2.01     0  06:00        0.83
  Node164              JUNCTION     0.80     1.07     2.00     0  06:00        1.07
  Node165              JUNCTION     0.75     1.08     2.67     0  03:09        1.08
  Node166              JUNCTION     1.16     1.50     2.75     0  04:52        1.50
  Node167              JUNCTION     1.21     1.60     2.90     0  04:23        1.60
  Node168              JUNCTION     0.84     1.23     2.90     0  04:23        1.23
  Node169              JUNCTION     1.16     1.58     2.98     0  04:13        1.58
  Node17               JUNCTION     1.10     2.23     2.31     0  00:05        2.23
  Node170              JUNCTION     1.13     1.55     3.00     0  04:10        1.55
  Node171              JUNCTION     0.79     1.21     2.74     0  05:22        1.21
  Node172              JUNCTION     1.22     1.50     2.98     0  00:00        1.46
  Node173              JUNCTION     0.89     1.06     2.86     0  06:00        1.06
  Node174              JUNCTION     0.40     0.65     2.77     0  03:21        0.65
  Node175              JUNCTION     0.80     1.05     2.77     0  03:21        1.05
  Node176              JUNCTION     0.80     0.99     2.64     0  03:42        0.99
  Node177              JUNCTION     0.44     0.95     2.55     0  03:00        0.95
  Node178              JUNCTION     0.41     1.05     2.55     0  03:00        1.04
  Node18               JUNCTION     1.21     2.08     2.08     0  00:14        2.08
  Node180              JUNCTION     0.07     0.56     2.62     0  00:00        0.49
  Node181              JUNCTION     0.41     0.60     2.64     0  03:42        0.60
  Node182              JUNCTION     0.81     1.06     2.78     0  03:21        1.06
  Node183              JUNCTION     0.80     1.11     2.99     0  03:24        1.11
  Node184              JUNCTION     0.80     1.12     3.01     0  03:24        1.12
  Node185              JUNCTION     0.81     1.12     3.02     0  03:26        1.12
  Node186              JUNCTION     0.42     0.72     3.02     0  03:26        0.72
  Node187              JUNCTION     0.33     0.61     3.03     0  03:39        0.61
  Node188              JUNCTION     0.21     0.60     3.16     0  00:00        0.47
  Node189              JUNCTION     0.80     1.11     3.02     0  03:27        1.11
  Node19               JUNCTION     1.29     2.35     2.26     0  00:07        2.33
  Node190              JUNCTION     0.80     1.11     3.02     0  03:26        1.11
  Node191              JUNCTION     0.61     1.00     3.11     0  00:00        0.93
  Node192              JUNCTION     0.73     1.39     3.02     0  00:00        1.18
  Node193              JUNCTION     0.88     1.42     3.07     0  00:01        1.36
  Node194              JUNCTION     0.24     0.90     3.27     0  00:00        0.46
  Node195              JUNCTION     0.80     1.07     3.04     0  03:43        1.07
  Node196              JUNCTION     0.25     0.46     3.13     0  04:00        0.46
  Node197              JUNCTION     0.15     0.31     3.11     0  04:44        0.31
  Node198              JUNCTION     0.80     1.07     3.04     0  03:43        1.07
  Node199              JUNCTION     0.80     1.07     3.04     0  03:43        1.07
  Node2                JUNCTION     1.03     2.48     2.62     0  00:00        1.98
  Node20               JUNCTION     1.10     1.21     3.12     0  06:00        1.21
  Node200              JUNCTION     0.79     1.06     3.04     0  03:43        1.06
  Node201              JUNCTION     0.80     1.07     3.04     0  03:43        1.07
  Node202              JUNCTION     0.27     0.52     3.20     0  04:42        0.52
  Node203              JUNCTION     0.15     0.31     3.14     0  06:00        0.31
  Node204              JUNCTION     0.84     1.10     3.04     0  03:41        1.10
  Node205              JUNCTION     0.52     0.78     3.04     0  03:41        0.78
  Node206              JUNCTION     0.84     1.10     3.04     0  03:41        1.10
  Node207              JUNCTION     0.84     1.10     3.04     0  03:42        1.10
  Node208              JUNCTION     0.51     0.78     3.04     0  04:04        0.78
  Node209              JUNCTION     0.88     1.14     3.04     0  03:40        1.14
  Node21               JUNCTION     1.17     1.33     3.12     0  06:00        1.33
  Node210              JUNCTION     0.48     0.74     3.04     0  03:40        0.74
  Node211              JUNCTION     0.73     0.97     3.27     0  03:56        0.97
  Node212              JUNCTION     0.77     1.01     3.23     0  04:05        1.01
  Node213              JUNCTION     0.82     1.05     3.19     0  04:04        1.05
  Node214              JUNCTION     0.82     1.05     3.19     0  04:03        1.05
  Node215              JUNCTION     0.91     1.15     3.17     0  03:47        1.15
  Node216              JUNCTION     0.93     1.20     3.06     0  03:52        1.20
[...]
  6005                        1.47      1.54      1.61      1.47         1.19
  6003                        0.01      1.61      0.01      4.26         0.01
  6009                        0.01      0.01      1.06      0.01         0.01
  6012                        0.01      0.01      0.03      0.02         0.01
  6000                        0.01      0.01      1.01      0.01         0.01
  6018                        1.01      1.01      1.30      0.01         0.01
  6019                        0.01      0.01      1.30      0.01         0.01
  6016                        0.01      0.01      0.44      0.01         0.01
  6017                        2.42      2.42      3.12      0.01         0.01
  6022                        2.42      2.44      2.42      1.25         1.15
  6021                        0.01      0.01      2.44      0.01         0.01
  6002                        0.01      0.01      0.01      0.01         0.01
  6026                        0.01      0.01      4.53      0.01         0.01
  7001                        0.01      0.01      3.91      0.01         0.01
  7020                        2.06      2.96      2.06      3.23         1.13
  7017                        2.96      3.90      2.96      4.15         2.96
  7025                        3.90      3.90      3.90      3.41         3.06
  7014                        3.90      3.90      4.06      0.86         0.01
  7028                        4.06      4.06      4.06      4.18         0.01
  7015                        3.82      3.82      4.06      2.91         0.01
  7029                        2.99      2.99      3.82      0.01         0.01
  7000                        2.91      2.91      3.15      0.01         0.01
  7033                        0.98      1.01      2.91      3.04         0.01
  7034                        0.98      1.01      2.93      0.01         0.01
  7037                        0.01      0.01      2.88      0.01         0.01
  7038                        2.88      2.88      2.97      0.01         0.01
  7027                        2.84      2.92      2.84      4.79         2.84
  7006                        0.01      0.01      2.86      0.01         0.01
  7031                        2.86      2.86      3.08      0.01         0.01
  7032                        2.43      2.43      3.08      0.01         0.01
  7026                        2.76      2.78      2.76      4.22         2.76
  7018                        2.78      2.78      2.85      0.34         0.01
  7013                        2.85      2.85      2.93      0.01         0.01
  7012                        0.01      0.01      0.01      2.90         0.01
  7004                        0.01      0.01      4.30      0.01         0.01
  7011                        0.01      0.01      0.01      0.43         0.01
  7009                        1.94      2.17      1.94      2.23         0.92
  7021                        1.65      1.65      1.94      5.96         0.01
  7008                        2.14      2.42      2.17      1.00         0.29
  7007                        2.42      2.42      2.92      0.44         0.01
  7024                        2.92      2.92      2.92      0.34         0.40
  7002                        2.92      2.92      2.93      0.01         0.01
  7003                        2.94      2.94      2.95      2.96         0.01
  7005                        2.14      2.14      2.42      1.57         0.62
  8001                        0.01      0.01      0.82      0.01         0.01
  8000                        0.01      0.01      0.01      1.22         0.01
  8026                        0.01      0.01      0.01      3.28         0.01
  8041                        0.01      0.01      0.54      0.01         0.01
  8012                        0.54      0.54      0.62      0.01         0.01
  8013                        0.62      0.62      1.59      0.19         0.20
  8043                        1.59      1.59      1.66      0.01         0.01
  8014                        0.01      1.66      0.01      4.47         0.01
  8023                        3.00      3.00      3.76      0.01         0.01
  8042                        3.00      3.00      3.14      1.15         1.15
  8059                        2.91      2.91      4.20      0.01         0.01
  8006                        0.01      0.01      1.17      0.01         0.01
  8051                        3.33      3.33      3.40      3.37         0.01
  8050                        1.03      3.16      1.03      5.98         1.03
  8049                        3.16      3.16      3.28      2.09         2.09
  8015                        0.01      0.01      1.84      0.01         0.01
  8031                        0.01      0.01      0.01      5.50         0.01
  8035                        3.48      3.48      3.48      2.24         0.03
  8002                        3.30      3.30      3.48      2.31         0.01
  8024                        3.48      3.49      3.48      3.37         2.81
  8058                        3.17      3.18      3.17      2.61         1.37
  8057                        2.93      2.93      3.18      0.73         0.01
  8020                        2.93      2.93      3.17      0.01         0.01
  8040                        2.76      2.76      2.93      0.01         0.01
  8027                        1.54      1.54      2.76      0.01         0.01
  8025                        0.01      0.01      1.54      0.01         0.01
  8055                        3.59      3.59      3.62      0.01         0.01
  8054                        0.01      0.01      3.00      0.01         0.01
  8021                        0.01      0.01      0.01      4.31         0.01
  8029                        0.01      0.01      0.79      0.01         0.01
  8007                        0.79      0.79      3.03      0.01         0.01
  8003                        2.79      2.79      2.93      0.59         0.01
  8009                        0.01      0.01      2.07      0.01         0.01
  8010                        2.21      2.21      5.08      0.01         0.01
  8036                        2.06      2.07      2.21      0.01         0.01
  8045                        0.01      0.01      1.13      0.01         0.01
  8044                        0.01      0.01      5.49      0.01         0.01
  8039                        0.01      0.01      1.78      0.01         0.01
  8034                        1.68      1.78      2.70      0.01         0.59
  8038                        2.70      2.70      2.94      0.01         0.01
  8033                        2.94      2.94      4.11      0.01         0.01
  8037                        4.11      4.12      4.11      4.65         4.09
  8047                        3.41      3.41      4.12      0.01         0.01
  8053                        0.01      0.01      3.41      0.01         0.01
  9001                        0.49      0.49      0.70      0.01         0.01
  9025                        0.69      0.69      5.85      0.01         0.01
  9054                        0.01      0.01      0.04      0.01         0.01
  9024                        0.04      0.04      0.27      0.01         0.01
  9047                        0.01      0.01      0.85      0.01         0.01
  9033                        0.01      0.01      0.01      0.01         0.01
  9042                        0.01      0.01      0.01      0.16         0.01
  9034                        0.01      0.23      0.01      0.54         0.01
  9044                        0.51      0.51      4.28      0.01         0.01
  9028                        0.42      0.42      3.57      0.01         0.01
  9056                        0.44      0.44      4.29      0.01         0.01
  9017                        0.42      0.42      3.59      0.01         0.01
  9048                        0.60      0.60      6.00      0.01         0.01
  9029                        0.58      0.58      2.89      0.01         0.01
  9031                        0.01      0.04      0.01      1.09         0.01
  9055                        0.01      0.01      0.04      0.01         0.01
  9046                        0.03      0.03      3.66      0.01         0.01
  9009                        0.03      0.47      0.03      0.51         0.01
  9032                        0.47      0.57      0.47      0.59         0.47
  9051                        0.55      0.55      0.57      0.01         0.01
  9050                        0.01      0.01      0.55      0.01         0.01
  9049                        0.01      0.01      0.57      0.01         0.01
  9026                        0.83      0.89      0.83      2.37         0.42
  9027                        0.01      0.01      0.89      0.01         0.01
  9002                        0.01      0.01      0.72      0.01         0.01
  9053                        0.01      0.01      3.64      0.01         0.01
  9007                        0.01      0.01      0.01      0.01         0.01
  9030                        0.01      0.01      0.01      0.01         0.01
  9021                        0.01      0.01      3.64      0.01         0.01
  9052                        0.01      0.01      0.01      0.32         0.01
  9022                        0.01      0.01      0.01      0.01         0.01
  9006                        0.01      0.01      0.01      0.01         0.01
  9010                        0.70      0.70      1.98      1.96         0.01
  9016                        0.08      0.08      0.24      0.01         0.01
  9005                        0.05      0.05      0.24      0.02         0.01
  9019                        0.01      0.01      0.05      0.03         0.01
  9041                        0.01      0.01      0.01      0.05         0.01
  9011                        0.01      0.01      3.09      0.01         0.01
  9039                        0.01      0.01      0.01      0.01         0.01
  9018                        0.05      0.05      0.05      0.01         0.01
  9040                        0.24      0.24      0.24      0.01         0.05
  9023                        0.08      0.08      0.08      0.01         0.01
  9003                        0.01      0.01      0.95      0.01         0.01
  9038                        0.91      0.91      1.92      0.01         0.01
  9004                        0.95      0.95      2.64      0.01         0.01
  9020                        0.01      0.01      0.99      0.01         0.01
  9015                        0.98      0.99      1.01      0.01         0.01
  9014                        0.92      0.94      0.99      0.01         0.04
  9012                        0.01      0.01      3.06      0.01         0.01
  9037                        0.01      0.01      0.01      0.01         0.01
  9008                        0.01      0.01      4.43      0.01         0.01
  9036                        0.01      0.01      0.01      0.01         0.01
  9501                        0.32      0.32      0.50      0.01         0.01
  9503                        0.50      0.50      5.21      0.01         0.01
  9517                        0.01      0.01      0.01      0.01         0.01
  9507                        0.01      0.01      0.09      0.01         0.01
  9508                        0.01      0.01      0.01      0.01         0.01
  9509                        0.01      0.07      0.01      0.01         0.01
  9516                        0.08      0.08      2.35      0.01         0.01
  9518                        0.01      0.01      0.08      0.45         0.01
  9512                        0.01      0.01      0.01      3.39         0.01
  9511                        0.79      0.79      4.47      0.01         0.01
  9502                        0.01      0.02      0.02      0.01         0.01
  9515                        0.01      0.01      0.02      0.01         0.01
  9514                        0.01      0.01      0.01      0.01         0.01
  9506                        0.16      0.17      0.47      0.01         0.01
  9505                        0.47      0.47      4.34      0.01         0.01
  9504                        0.19      0.19      0.47      0.01         0.01
  9513                        0.01      0.01      0.19      0.01         0.01
  9600                        0.01      0.01      1.11      0.01         0.01
  9619                        0.01      0.01      0.01      3.26         0.01
  9646                        0.01      0.01      0.01      2.77         0.01
  9612                        0.01      0.01      3.21      0.01         0.01
  9620                        0.01      0.01      0.01      6.00         0.01
  9636                        0.01      0.01      0.01      4.59         0.01
  9645                        0.01      0.01      0.01      5.71         0.01
  9621                        0.01      0.01      2.95      4.67         0.01
  9644                        0.01      0.01      3.21      0.01         0.01
  9622                        2.95      2.95      3.11      4.59         0.01
  9643                        3.28      3.28      3.28      2.85         0.02
  9634                        3.25      3.28      3.25      2.80         2.75
  9642                        5.03      5.03      5.09      0.01         0.01
  9627                        3.49      3.49      3.72      3.28         3.30
  9626                        3.49      3.49      4.08      0.01         0.01
  9631                        3.10      3.10      4.08      0.01         0.01
  9641                        0.01      0.01      2.22      3.15         0.01
  9662                        2.22      2.22      2.43      2.78         0.01
  9661                        2.43      2.44      2.43      3.01         2.36
  9663                        4.02      4.03      4.02      3.47         3.02
  9624                        2.25      2.26      2.44      0.06         0.01
  9635                        1.14      1.14      2.26      0.01         0.01
  9640                        0.01      0.01      1.14      0.01         0.01
  9625                        0.01      0.01      2.60      0.01         0.01
  9649                        4.02      4.03      4.02      1.18         0.15
  9610                        3.61      3.61      4.03      2.73         0.01
  9618                        3.51      3.51      3.61      3.78         0.01
  9617                        3.51      3.51      3.79      0.01         0.01
  9603                        4.70      4.70      4.75      4.70         4.70
  9633                        0.01      0.01      2.76      0.01         0.01
  9647                        2.74      2.74      2.76      1.59         0.01
  9654                        2.74      2.75      2.74      0.01         0.19
  9648                        2.74      2.74      3.48      0.01         0.01
  9604                        0.01      0.01      0.01      0.04         0.01
  9607                        0.01      0.01      4.57      0.01         0.01
  9609                        0.14      0.15      0.14      0.04         0.03
  9608                        0.14      0.14      4.14      0.01         0.01
  9658                        0.14      0.14      1.46      0.01         0.01
  9657                        0.14      0.14      0.14      0.38         0.01
  9630                        0.01      0.01      0.15      0.01         0.01
  9629                        0.01      0.01      0.45      0.01         0.01
  9638                        0.40      0.40      0.45      0.01         0.01
  9611                        0.01      0.01      5.70      0.01         0.01
  9614                        0.01      0.01      1.77      0.01         0.01
  9653                        1.76      1.77      1.76      1.37         0.58
  9605                        1.76      1.76      4.20      0.01         0.01
  9652                        1.71      1.78      1.77      2.03         0.75
  9615                        1.78      1.78      1.97      0.15         0.01
  9616                        2.79      2.79      3.03      0.01         0.01
  9655                        2.99      3.03      2.99      2.33         2.27
  9639                        2.99      2.99      3.09      0.51         0.53
  9656                        2.50      3.09      2.50      3.35         2.50
  9651                        0.34      2.50      0.34      3.39         0.34
  9613                        0.08      0.34      0.10      2.98         0.04
  9650                        0.10      0.10      0.17      0.01         0.01
  9632                        0.01      0.01      2.81      0.01         0.01
  9628                        0.01      0.01      3.21      0.01         0.01
  9659                        0.01      0.01      5.30      0.01         0.01
  9660                        1.18      1.18      5.45      0.01         0.01
  C1                          2.85      2.85      2.93      0.01         0.01
  C2                          0.01      0.01      3.80      0.01         0.01
  C4                          0.01      0.01      0.01      5.93         0.01
  C6                          2.91      3.15      2.91      3.51         2.91
  C7                          0.01      0.01      3.15      0.01         0.01
  2                           0.01      0.01      0.01      5.99         0.01
  4                           0.01      0.01      0.01      1.80         0.01
  6                           0.01      1.50      0.01      0.06         0.01
  7                           0.01      0.01      0.02      0.01         0.01
  9                           0.01      0.01      0.02      0.01         0.01
  11                          0.01      0.01      1.04      0.01         0.01
  12                          0.01      0.01      1.04      0.01         0.01
  13                          0.01      0.01      1.45      0.01         0.01
  14                          1.04      1.04      1.45      1.25         0.75
  15                          1.04      1.04      4.56      0.01         0.01
  16                          0.69      0.69      6.00      0.01         0.01
  18                          2.17      2.17      2.95      2.32         0.01
  19                          0.01      0.01      2.17      0.01         0.01
  20                          2.17      2.17      3.91      0.01         0.01
  21                          0.01      0.01      1.66      0.01         0.01
  22                          1.66      1.66      6.00      0.01         0.01
  23                          0.68      0.69      1.06      0.01         0.01
  8                           0.01      0.01      0.01      1.69         0.01
  17                          0.69      0.70      0.69      2.32         0.60
  24                          2.66      2.66      3.60      0.01         0.01
  25                          3.60      3.60      4.03      2.00         0.01
  26                          1.47      1.54      1.65      3.02         0.07
  27                          2.48      2.57      2.86      0.01         0.28
  29                          0.01      0.02      1.06      0.01         0.01
  31                          0.01      0.01      1.67      0.01         0.01
  33                          0.01      0.01      0.01      0.88         0.01
  36                          0.01      0.01      0.03      0.01         0.01
  41                          0.01      0.01      1.01      0.01         0.01
  43                          0.01      0.01      3.48      0.01         0.01
  44                          3.18      3.18      3.20      1.93         1.95
  

  Analysis begun on:  Mon Jul 26 12:42:53 2021
  Analysis ended on:  Mon Jul 26 12:43:19 2021
  Total elapsed time: 00:00:26