
  EPA STORM WATER MANAGEMENT MODEL - VERSION 5.2 (Build 5.2.4)
  ------------------------------------------------------------

  WARNING 03: negative offset ignored for Link D24
  WARNING 03: negative offset ignored for Link D45
  WARNING 03: negative offset ignored for Link D167
  
  ****************
  Analysis Options
  ****************
  Flow Units ............... CMS
  Process Models:
    Rainfall/Runoff ........ YES
    RDII ................... NO
    Snowmelt ............... NO
    Groundwater ............ NO
    Flow Routing ........... YES
    Ponding Allowed ........ NO
    Water Quality .......... NO
  Infiltration Method ...... MODIFIED_GREEN_AMPT
  Flow Routing Method ...... KINWAVE
  Starting Date ............ 09/04/2019 00:00:00
  Ending Date .............. 09/04/2019 06:00:00
  Antecedent Dry Days ...... 0.0
  Report Time Step ......... 00:15:00
  Wet Time Step ............ 00:05:00
  Dry Time Step ............ 01:00:00
  Routing Time Step ........ 30.00 sec
  
  
  **************************        Volume         Depth
  Runoff Quantity Continuity     hectare-m            mm
  **************************     ---------       -------
  Total Precipitation ......        56.724        82.600
  Evaporation Loss .........         0.000         0.000
  Infiltration Loss ........        26.996        39.311
  Surface Runoff ...........        29.537        43.011
  Final Storage ............         0.467         0.680
  Continuity Error (%) .....        -0.486
  
  
  **************************        Volume        Volume
  Flow Routing Continuity        hectare-m      10^6 ltr
  **************************     ---------     ---------
  Dry Weather Inflow .......         0.000         0.000
  Wet Weather Inflow .......        29.536       295.365
  Groundwater Inflow .......         0.000         0.000
  RDII Inflow ..............         0.000         0.000
  External Inflow ..........         0.000         0.000
  External Outflow .........        25.324       253.240
  Flooding Loss ............         2.750        27.498
  Evaporation Loss .........         0.000         0.000
  Exfiltration Loss ........         0.000         0.000
  Initial Stored Volume ....         0.000         0.000
  Final Stored Volume ......         2.152        21.522
  Continuity Error (%) .....        -2.335
  
  
  ********************************
  Highest Flow Instability Indexes
  ********************************
  Link D20 (4)
  Link D8 (3)
  Link D21 (3)
  Link D33 (3)
  Link D12 (3)
  
  
  *************************
  Routing Time Step Summary
  *************************
  Minimum Time Step           :    30.00 sec
  Average Time Step           :    30.00 sec
  Maximum Time Step           :    30.00 sec
  % of Time in Steady State   :     0.00
  Average Iterations per Step :     2.11
  % of Steps Not Converging   :     0.00
  
  
  ***************************
  Subcatchment Runoff Summary
  ***************************
  
  ------------------------------------------------------------------------------------------------------------------------------
                            Total      Total      Total      Total     Imperv       Perv      Total       Total     Peak  Runoff
                           Precip      Runon       Evap      Infil     Runoff     Runoff     Runoff      Runoff   Runoff   Coeff
  Subcatchment                 mm         mm         mm         mm         mm         mm         mm    10^6 ltr      CMS
  ------------------------------------------------------------------------------------------------------------------------------
  S1                        82.60       0.00       0.00      40.68      24.32      17.37      41.69        1.02     0.58   0.505
  S2                        82.60       0.00       0.00      41.76      24.28      16.24      40.52        1.67     0.89   0.491
  S3                        82.60       0.00       0.00      42.78      24.24      15.19      39.43        2.59     1.29   0.477
  S4                        82.60       0.00       0.00      40.65      24.32      17.40      41.72        1.00     0.57   0.505
  S5                        82.60       0.00       0.00      40.68      24.32      17.38      41.70        1.01     0.57   0.505
  S6                        82.60       0.00       0.00      40.16      24.34      17.92      42.25        0.77     0.46   0.512
  S7                        82.60       0.00       0.00      42.43      24.26      15.54      39.80        2.23     1.13   0.482
  S8                        82.60       0.00       0.00      42.30      24.26      15.68      39.94        2.13     1.09   0.484
  S9                        82.60       0.00       0.00      42.03      24.27      15.97      40.24        1.89     0.98   0.487
  S10                       82.60       0.00       0.00      41.27      24.30      16.75      41.05        1.35     0.74   0.497
  S11                       82.60       0.00       0.00      41.12      24.31      16.90      41.21        1.26     0.69   0.499
  S12                       82.60       0.00       0.00      41.51      24.29      16.50      40.79        1.50     0.81   0.494
  S13                       82.60       0.00       0.00      30.70      36.45      15.00      51.44        0.74     0.44   0.623
  S14                       82.60       0.00       0.00      40.28      24.33      17.79      42.13        0.84     0.49   0.510
  S15                       82.60       0.00       0.00      40.37      24.33      17.69      42.02        0.87     0.50   0.509
  S16                       82.60       0.00       0.00      41.24      24.30      16.78      41.08        1.33     0.73   0.497
  S17                       82.60       0.00       0.00      40.80      24.32      17.25      41.56        1.07     0.60   0.503
  S18                       82.60       0.00       0.00      40.31      24.33      17.76      42.09        0.83     0.49   0.510
  S19                       82.60       0.00       0.00      41.30      24.30      16.72      41.02        1.37     0.75   0.497
  S20                       82.60       0.00       0.00      41.14      24.30      16.88      41.19        1.28     0.70   0.499
  S21                       82.60       0.00       0.00      40.73      24.32      17.32      41.64        1.04     0.59   0.504
  S22                       82.60       0.00       0.00      40.84      24.32      17.21      41.53        1.09     0.61   0.503
  S23                       82.60       0.00       0.00      41.13      24.30      16.89      41.20        1.26     0.69   0.499
  S24                       82.60       0.00       0.00      40.52      24.33      17.54      41.87        0.93     0.54   0.507
  S25                       82.60       0.00       0.00      39.60      24.36      18.53      42.88        0.55     0.34   0.519
  S26                       82.60       0.00       0.00      30.35      36.48      15.38      51.86        0.53     0.33   0.628
  S27                       82.60       0.00       0.00      39.62      24.36      18.50      42.86        0.56     0.35   0.519
  S28                       82.60       0.00       0.00      39.78      24.35      18.33      42.68        0.62     0.38   0.517
  S29                       82.60       0.00       0.00      40.10      24.34      17.98      42.32        0.74     0.44   0.512
  S30                       82.60       0.00       0.00      39.86      24.35      18.23      42.58        0.63     0.38   0.516
  S31                       82.60       0.00       0.00      39.22      24.37      18.92      43.29        0.39     0.25   0.524
  S32                       82.60       0.00       0.00      38.69      24.38      19.50      43.88        0.30     0.20   0.531
  S33                       82.60       0.00       0.00      37.92      24.40      20.39      44.79        0.19     0.14   0.542
  S34                       82.60       0.00       0.00      38.77      24.38      19.41      43.79        0.32     0.21   0.530
  S35                       82.60       0.00       0.00      39.48      24.36      18.65      43.01        0.52     0.32   0.521
  S36                       82.60       0.00       0.00      39.41      24.36      18.73      43.09        0.50     0.31   0.522
  S37                       82.60       0.00       0.00      39.91      24.35      18.18      42.52        0.68     0.41   0.515
  S38                       82.60       0.00       0.00      39.51      24.36      18.62      42.98        0.52     0.33   0.520
  S39                       82.60       0.00       0.00      39.00      24.37      19.16      43.54        0.37     0.24   0.527
  S40                       82.60       0.00       0.00      38.73      24.38      19.46      43.84        0.31     0.20   0.531
  S41                       82.60       0.00       0.00      38.00      24.40      20.30      44.70        0.17     0.12   0.541
  S42                       82.60       0.00       0.00      38.34      24.39      19.92      44.31        0.23     0.16   0.536
  S43                       82.60       0.00       0.00      38.80      24.38      19.38      43.76        0.32     0.21   0.530
  S44                       82.60       0.00       0.00      38.54      24.39      19.70      44.08        0.27     0.19   0.534
  S45                       82.60       0.00       0.00      39.22      24.37      18.92      43.29        0.42     0.27   0.524
  S46                       82.60       0.00       0.00      39.65      24.35      18.47      42.83        0.56     0.35   0.519
  S47                       82.60       0.00       0.00      38.26      24.39      20.01      44.41        0.21     0.15   0.538
  S48                       82.60       0.00       0.00      38.55      24.39      19.69      44.07        0.25     0.17   0.534
  S49                       82.60       0.00       0.00      38.60      24.39      19.61      43.99        0.28     0.19   0.533
  S50                       82.60       0.00       0.00      39.41      24.36      18.72      43.09        0.49     0.31   0.522
  S51                       82.60       0.00       0.00      30.29      36.49      15.47      51.96        0.46     0.29   0.629
  S52                       82.60       0.00       0.00      30.18      36.50      15.59      52.09        0.44     0.28   0.631
  S53                       82.60       0.00       0.00      30.11      36.51      15.67      52.18        0.41     0.26   0.632
  S54                       82.60       0.00       0.00      38.78      24.38      19.40      43.78        0.32     0.21   0.530
  S55                       82.60       0.00       0.00      38.86      24.38      19.31      43.69        0.35     0.23   0.529
  S56                       82.60       0.00       0.00      30.16      36.50      15.61      52.11        0.45     0.29   0.631
  S57                       82.60       0.00       0.00      41.12      24.31      16.90      41.21        1.27     0.70   0.499
  S58                       82.60       0.00       0.00      41.51      24.29      16.50      40.79        1.51     0.81   0.494
  S59                       82.60       0.00       0.00      41.36      24.30      16.66      40.95        1.40     0.76   0.496
  S60                       82.60       0.00       0.00      42.43      24.26      15.54      39.80        2.26     1.14   0.482
  S61                       82.60       0.00       0.00      42.99      24.23      14.98      39.22        2.82     1.38   0.475
  S62                       82.60       0.00       0.00      41.88      24.28      16.12      40.40        1.78     0.94   0.489
  S63                       82.60       0.00       0.00      41.86      24.28      16.14      40.42        1.76     0.92   0.489
  S64                       82.60       0.00       0.00      31.34      36.38      14.31      50.69        1.28     0.72   0.614
  S65                       82.60       0.00       0.00      31.64      36.35      13.98      50.34        1.60     0.87   0.609
  S66                       82.60       0.00       0.00      30.98      36.42      14.70      51.12        0.96     0.56   0.619
  S67                       82.60       0.00       0.00      30.75      36.44      14.94      51.38        0.80     0.48   0.622
  S68                       82.60       0.00       0.00      30.38      36.48      15.34      51.82        0.56     0.35   0.627
  S69                       82.60       0.00       0.00      30.31      36.49      15.45      51.93        0.51     0.32   0.629
  S70                       82.60       0.00       0.00      29.92      36.53      15.88      52.41        0.34     0.22   0.634
  S71                       82.60       0.00       0.00      30.25      36.49      15.51      52.01        0.48     0.31   0.630
  S72                       82.60       0.00       0.00      29.78      36.54      16.04      52.58        0.28     0.19   0.637
  S73                       82.60       0.00       0.00      29.84      36.53      15.97      52.51        0.29     0.19   0.636
  S74                       82.60       0.00       0.00      31.30      36.39      14.34      50.73        1.24     0.70   0.614
  S75                       82.60       0.00       0.00      30.73      36.45      14.96      51.41        0.78     0.46   0.622
  S76                       82.60       0.00       0.00      31.41      36.38      14.23      50.60        1.35     0.75   0.613
  S77                       82.60       0.00       0.00      31.16      36.40      14.50      50.90        1.11     0.64   0.616
  S78                       82.60       0.00       0.00      30.73      36.45      14.96      51.41        0.78     0.46   0.622
  S79                       82.60       0.00       0.00      30.43      36.47      15.29      51.76        0.59     0.36   0.627
  S80                       82.60       0.00       0.00      31.16      36.40      14.50      50.90        1.11     0.64   0.616
  S81                       82.60       0.00       0.00      30.51      36.47      15.20      51.67        0.64     0.39   0.626
  S82                       82.60       0.00       0.00      30.11      36.51      15.66      52.17        0.42     0.27   0.632
  S83                       82.60       0.00       0.00      30.40      36.48      15.32      51.80        0.58     0.36   0.627
  S84                       82.60       0.00       0.00      30.38      36.48      15.34      51.82        0.56     0.35   0.627
  S85                       82.60       0.00       0.00      30.25      36.49      15.51      52.01        0.48     0.31   0.630
  S86                       82.60       0.00       0.00      30.35      36.48      15.38      51.87        0.54     0.34   0.628
  S87                       82.60       0.00       0.00      30.21      36.50      15.56      52.06        0.46     0.29   0.630
  S88                       82.60       0.00       0.00      30.27      36.49      15.49      51.98        0.49     0.31   0.629
  S89                       82.60       0.00       0.00      30.21      36.50      15.56      52.06        0.46     0.29   0.630
  S90                       82.60       0.00       0.00      30.02      36.52      15.76      52.28        0.37     0.24   0.633
  S91                       82.60       0.00       0.00      30.00      36.52      15.79      52.31        0.36     0.23   0.633
  S92                       82.60       0.00       0.00      30.02      36.52      15.76      52.28        0.37     0.24   0.633
  S93                       82.60       0.00       0.00      30.50      36.47      15.22      51.69        0.63     0.39   0.626
  S94                       82.60       0.00       0.00      30.29      36.49      15.47      51.96        0.46     0.29   0.629
  S95                       82.60       0.00       0.00      30.95      36.42      14.73      51.15        0.95     0.55   0.619
  S96                       82.60       0.00       0.00      30.09      36.51      15.69      52.20        0.41     0.26   0.632
  S97                       82.60       0.00       0.00      40.16      24.34      17.91      42.25        0.77     0.45   0.511
  S98                       82.60       0.00       0.00      30.97      36.42      14.71      51.13        0.91     0.53   0.619
  S99                       82.60       0.00       0.00      30.27      36.49      15.49      51.98        0.49     0.31   0.629
  S100                      82.60       0.00       0.00      30.14      36.50      15.64      52.14        0.43     0.28   0.631
  S101                      82.60       0.00       0.00      30.71      36.45      14.98      51.43        0.78     0.47   0.623
  S102                      82.60       0.00       0.00      30.75      36.44      14.95      51.39        0.78     0.47   0.622
  S103                      82.60       0.00       0.00      39.16      24.37      18.99      43.36        0.42     0.27   0.525
  S104                      82.60       0.00       0.00      39.87      24.35      18.22      42.56        0.64     0.39   0.515
  S105                      82.60       0.00       0.00      41.03      24.31      16.99      41.30        1.22     0.68   0.500
  S106                      82.60       0.00       0.00      41.40      24.30      16.61      40.91        1.44     0.78   0.495
  S107                      82.60       0.00       0.00      30.85      36.43      14.84      51.27        0.86     0.51   0.621
  S108                      82.60       0.00       0.00      31.12      36.41      14.55      50.95        1.07     0.62   0.617
  S109                      82.60       0.00       0.00      39.75      24.35      18.37      42.72        0.60     0.37   0.517
  S110                      82.60       0.00       0.00      39.69      24.35      18.43      42.78        0.57     0.35   0.518
  S111                      82.60       0.00       0.00      40.29      24.33      17.78      42.11        0.83     0.49   0.510
  S112                      82.60       0.00       0.00      39.97      24.34      18.12      42.46        0.69     0.41   0.514
  S113                      82.60       0.00       0.00      39.07      24.37      19.09      43.46        0.39     0.25   0.526
  S114                      82.60       0.00       0.00      38.19      24.40      20.08      44.48        0.20     0.14   0.538
  S115                      82.60       0.00       0.00      39.19      24.37      18.96      43.32        0.43     0.28   0.525
  S116                      82.60       0.00       0.00      39.19      24.37      18.96      43.32        0.39     0.25   0.525
  S117                      82.60       0.00       0.00      40.09      24.34      17.99      42.33        0.74     0.44   0.512
  S118                      82.60       0.00       0.00      40.44      24.33      17.62      41.95        0.81     0.47   0.508
  S119                      82.60       0.00       0.00      39.35      24.36      18.78      43.15        0.49     0.31   0.522
  S120                      82.60       0.00       0.00      38.77      24.38      19.41      43.79        0.32     0.21   0.530
  S121                      82.60       0.00       0.00      38.64      24.38      19.57      43.95        0.29     0.19   0.532
  S122                      82.60       0.00       0.00      31.18      36.40      14.48      50.88        1.12     0.64   0.616
  S123                      82.60       0.00       0.00      31.63      36.35      14.00      50.35        1.57     0.86   0.610
  S124                      82.60       0.00       0.00      30.65      36.45      15.05      51.50        0.73     0.44   0.624
  S125                      82.60       0.00       0.00      31.08      36.41      14.59      51.01        1.03     0.59   0.617
  S126                      82.60       0.00       0.00      31.27      36.39      14.38      50.77        1.20     0.68   0.615
  S127                      82.60       0.00       0.00      30.74      36.44      14.95      51.39        0.79     0.47   0.622
  S128                      82.60       0.00       0.00      31.02      36.42      14.65      51.07        0.97     0.56   0.618
  S129                      82.60       0.00       0.00      31.17      36.40      14.50      50.90        1.12     0.64   0.616
  S130                      82.60       0.00       0.00      30.05      36.51      15.74      52.25        0.38     0.24   0.633
  S131                      82.60       0.00       0.00      30.42      36.48      15.31      51.78        0.59     0.36   0.627
  S132                      82.60       0.00       0.00      30.38      36.48      15.34      51.82        0.57     0.35   0.627
  S133                      82.60       0.00       0.00      30.40      36.48      15.32      51.80        0.56     0.35   0.627
  S134                      82.60       0.00       0.00      30.16      36.50      15.61      52.12        0.43     0.28   0.631
  S135                      82.60       0.00       0.00      29.88      36.53      15.93      52.46        0.32     0.21   0.635
  S136                      82.60       0.00       0.00      29.78      36.54      16.04      52.58        0.28     0.19   0.637
  S137                      82.60       0.00       0.00      29.79      36.54      16.03      52.57        0.28     0.19   0.636
  S138                      82.60       0.00       0.00      29.75      36.54      16.08      52.62        0.27     0.18   0.637
  S139                      82.60       0.00       0.00      29.65      36.55      16.19      52.74        0.25     0.17   0.639
  S140                      82.60       0.00       0.00      29.75      36.54      16.08      52.62        0.27     0.18   0.637
  S141                      82.60       0.00       0.00      30.03      36.51      15.75      52.27        0.39     0.25   0.633
  S142                      82.60       0.00       0.00      29.94      36.52      15.86      52.38        0.34     0.22   0.634
  S143                      82.60       0.00       0.00      29.71      36.55      16.12      52.66        0.25     0.17   0.638
  S144                      82.60       0.00       0.00      29.77      36.54      16.05      52.59        0.27     0.18   0.637
  S145                      82.60       0.00       0.00      29.80      36.54      16.01      52.55        0.28     0.18   0.636
  S146                      82.60       0.00       0.00      29.74      36.54      16.09      52.63        0.26     0.18   0.637
  S147                      82.60       0.00       0.00      29.19      36.59      16.78      53.37        0.10     0.07   0.646
  S148                      82.60       0.00       0.00      30.31      36.49      15.45      51.93        0.51     0.32   0.629
  S149                      82.60       0.00       0.00      30.31      36.49      15.45      51.93        0.49     0.31   0.629
  S150                      82.60       0.00       0.00      30.33      36.48      15.40      51.89        0.53     0.33   0.628
  S151                      82.60       0.00       0.00      30.44      36.47      15.28      51.76        0.58     0.36   0.627
  S152                      82.60       0.00       0.00      30.29      36.49      15.47      51.96        0.49     0.31   0.629
  S153                      82.60       0.00       0.00      30.29      36.49      15.47      51.96        0.48     0.30   0.629
  S154                      82.60       0.00       0.00      39.36      24.36      18.78      43.14        0.47     0.29   0.522
  S155                      82.60       0.00       0.00      39.22      24.37      18.93      43.29        0.44     0.28   0.524
  S156                      82.60       0.00       0.00      30.13      36.51      15.64      52.14        0.43     0.27   0.631
  S157                      82.60       0.00       0.00      30.54      36.46      15.17      51.63        0.66     0.40   0.625
  S158                      82.60       0.00       0.00      38.97      24.37      19.20      43.57        0.37     0.24   0.528
  S159                      82.60       0.00       0.00      38.47      24.39      19.77      44.16        0.24     0.17   0.535
  S160                      82.60       0.00       0.00      39.25      24.37      18.89      43.26        0.42     0.27   0.524
  S161                      82.60       0.00       0.00      39.88      24.35      18.21      42.56        0.66     0.40   0.515
  S162                      82.60       0.00       0.00      30.82      36.44      14.86      51.30        0.85     0.50   0.621
  S163                      82.60       0.00       0.00      39.80      24.35      18.30      42.65        0.64     0.39   0.516
  S164                      82.60       0.00       0.00      30.69      36.45      15.01      51.46        0.76     0.45   0.623
  S165                      82.60       0.00       0.00      29.82      36.54      16.00      52.53        0.29     0.19   0.636
  S166                      82.60       0.00       0.00      30.09      36.51      15.69      52.20        0.42     0.27   0.632
  S167                      82.60       0.00       0.00      39.95      24.34      18.13      42.48        0.68     0.41   0.514
  S168                      82.60       0.00       0.00      44.49      24.16      13.44      37.61        4.99     2.23   0.455
  S169                      82.60       0.00       0.00      40.87      24.31      17.18      41.49        1.12     0.63   0.502
  S170                      82.60       0.00       0.00      40.42      24.33      17.64      41.97        0.89     0.52   0.508
  S171                      82.60       0.00       0.00      40.52      24.33      17.53      41.86        0.92     0.53   0.507
  S172                      82.60       0.00       0.00      40.09      24.34      17.99      42.33        0.74     0.44   0.512
  S173                      82.60       0.00       0.00      39.81      24.35      18.29      42.64        0.63     0.38   0.516
  S174                      82.60       0.00       0.00      29.84      36.53      15.97      52.51        0.30     0.20   0.636
  S175                      82.60       0.00       0.00      40.17      24.34      17.90      42.24        0.78     0.46   0.511
  S176                      82.60       0.00       0.00      31.27      36.39      14.38      50.77        1.07     0.61   0.615
  S177                      82.60       0.00       0.00      30.89      36.43      14.79      51.22        0.89     0.52   0.620
  S178                      82.60       0.00       0.00      31.08      36.41      14.59      51.00        1.04     0.60   0.617
  S179                      82.60       0.00       0.00      30.90      36.43      14.78      51.21        0.91     0.53   0.620
  S180                      82.60       0.00       0.00      30.98      36.42      14.70      51.12        0.96     0.56   0.619
  S181                      82.60       0.00       0.00      40.87      24.31      17.18      41.49        1.12     0.63   0.502
  S182                      82.60       0.00       0.00      40.16      24.34      17.91      42.25        0.77     0.45   0.511
  S183                      82.60       0.00       0.00      39.60      24.36      18.53      42.88        0.55     0.34   0.519
  S184                      82.60       0.00       0.00      39.43      24.36      18.70      43.06        0.50     0.32   0.521
  S185                      82.60       0.00       0.00      39.73      24.35      18.39      42.74        0.59     0.36   0.517
  S186                      82.60       0.00       0.00      39.62      24.36      18.50      42.86        0.56     0.35   0.519
  S187                      82.60       0.00       0.00      39.36      24.36      18.78      43.14        0.47     0.30   0.522
  S188                      82.60       0.00       0.00      29.87      36.53      15.94      52.47        0.31     0.21   0.635
  S189                      82.60       0.00       0.00      30.03      36.51      15.75      52.27        0.39     0.25   0.633
  S190                      82.60       0.00       0.00      40.82      24.32      17.23      41.55        1.08     0.61   0.503
  S191                      82.60       0.00       0.00      40.77      24.32      17.28      41.60        1.06     0.60   0.504
  S192                      82.60       0.00       0.00      41.35      24.30      16.67      40.97        1.40     0.76   0.496
  S193                      82.60       0.00       0.00      41.11      24.31      16.92      41.22        1.25     0.69   0.499
  S194                      82.60       0.00       0.00      40.88      24.31      17.16      41.48        1.10     0.62   0.502
  S195                      82.60       0.00       0.00      39.74      24.35      18.37      42.73        0.61     0.37   0.517
  S196                      82.60       0.00       0.00      40.13      24.34      17.94      42.28        0.76     0.45   0.512
  S197                      82.60       0.00       0.00      40.94      24.31      17.10      41.41        1.16     0.65   0.501
  S198                      82.60       0.00       0.00      39.80      24.35      18.29      42.64        0.64     0.39   0.516
  S199                      82.60       0.00       0.00      38.90      24.38      19.27      43.65        0.35     0.23   0.528
  S200                      82.60       0.00       0.00      38.46      24.39      19.78      44.17        0.24     0.16   0.535
  S201                      82.60       0.00       0.00      41.47      24.29      16.54      40.83        1.48     0.80   0.494
  S202                      82.60       0.00       0.00      41.21      24.30      16.81      41.11        1.31     0.72   0.498
  S203                      82.60       0.00       0.00      40.32      24.33      17.75      42.08        0.84     0.49   0.509
  S204                      82.60       0.00       0.00      40.56      24.32      17.50      41.82        0.95     0.54   0.506
  S205                      82.60       0.00       0.00      40.72      24.32      17.33      41.65        1.01     0.57   0.504
  S206                      82.60       0.00       0.00      40.93      24.31      17.11      41.42        1.14     0.64   0.502
  S207                      82.60       0.00       0.00      40.30      24.33      17.77      42.10        0.84     0.49   0.510
  S208                      82.60       0.00       0.00      39.72      24.35      18.39      42.75        0.60     0.37   0.518
  S209                      82.60       0.00       0.00      38.86      24.38      19.31      43.69        0.35     0.23   0.529
  S210                      82.60       0.00       0.00      39.41      24.36      18.72      43.09        0.49     0.31   0.522
  S211                      82.60       0.00       0.00      38.52      24.39      19.72      44.11        0.25     0.17   0.534
  S212                      82.60       0.00       0.00      38.64      24.38      19.57      43.95        0.29     0.19   0.532
  S213                      82.60       0.00       0.00      41.58      24.29      16.43      40.72        1.56     0.83   0.493
  S214                      82.60       0.00       0.00      41.54      24.29      16.47      40.76        1.54     0.82   0.493
  S215                      82.60       0.00       0.00      40.48      24.33      17.58      41.90        0.94     0.54   0.507
  S216                      82.60       0.00       0.00      40.58      24.32      17.47      41.80        0.96     0.55   0.506
  S217                      82.60       0.00       0.00      40.05      24.34      18.03      42.37        0.72     0.43   0.513
  S218                      82.60       0.00       0.00      39.07      24.37      19.09      43.46        0.40     0.26   0.526
  S219                      82.60       0.00       0.00      44.60      24.16      13.32      37.48        5.21     2.31   0.454
  S220                      82.60       0.00       0.00      39.28      24.37      18.87      43.23        0.62     0.39   0.523
  S221                      82.60       0.00       0.00      40.67      24.32      17.38      41.70        1.00     0.57   0.505
  S222                      82.60       0.00       0.00      40.24      24.33      17.83      42.17        0.80     0.47   0.510
  S223                      82.60       0.00       0.00      41.74      24.28      16.26      40.55        1.66     0.88   0.491
  S224                      82.60       0.00       0.00      41.24      24.30      16.78      41.08        1.33     0.73   0.497
  S225                      82.60       0.00       0.00      40.77      24.32      17.28      41.60        1.06     0.60   0.504
  S226                      82.60       0.00       0.00      40.39      24.33      17.67      42.00        0.86     0.50   0.509
  S227                      82.60       0.00       0.00      40.67      24.32      17.38      41.70        1.00     0.57   0.505
  S228                      82.60       0.00       0.00      40.56      24.32      17.49      41.82        0.97     0.56   0.506
  S229                      82.60       0.00       0.00      40.84      24.32      17.21      41.53        1.09     0.61   0.503
  S230                      82.60       0.00       0.00      41.04      24.31      16.99      41.30        1.21     0.67   0.500
  S231                      82.60       0.00       0.00      39.86      24.35      18.23      42.57        0.65     0.39   0.515
  S232                      82.60       0.00       0.00      39.58      24.36      18.55      42.91        0.54     0.34   0.519
  S233                      82.60       0.00       0.00      39.84      24.35      18.25      42.60        0.65     0.39   0.516
  S234                      82.60       0.00       0.00      39.68      24.35      18.44      42.79        0.58     0.36   0.518
  S235                      82.60       0.00       0.00      39.62      24.36      18.50      42.86        0.56     0.35   0.519
  S236                      82.60       0.00       0.00      39.16      24.37      18.99      43.36        0.42     0.27   0.525
  S237                      82.60       0.00       0.00      39.51      24.36      18.62      42.98        0.52     0.33   0.520
  S238                      82.60       0.00       0.00      38.69      24.38      19.50      43.88        0.30     0.20   0.531
  S239                      82.60       0.00       0.00      41.50      24.29      16.51      40.81        1.50     0.81   0.494
  S240                      82.60       0.00       0.00      38.77      24.38      19.41      43.79        0.32     0.21   0.530
  S241                      82.60       0.00       0.00      39.88      24.35      18.21      42.56        0.66     0.40   0.515
  S242                      82.60       0.00       0.00      39.77      24.35      18.35      42.70        0.61     0.37   0.517
  S243                      82.60       0.00       0.00      40.94      24.31      17.09      41.40        1.16     0.65   0.501
  S244                      82.60       0.00       0.00      39.07      24.37      19.09      43.46        0.39     0.25   0.526
  S245                      82.60       0.00       0.00      39.41      24.36      18.72      43.09        0.49     0.31   0.522
  S246                      82.60       0.00       0.00      39.03      24.37      19.13      43.50        0.38     0.25   0.527
  S247                      82.60       0.00       0.00      38.93      24.38      19.24      43.61        0.36     0.23   0.528
  S248                      82.60       0.00       0.00      40.22      24.34      17.85      42.19        0.83     0.49   0.511
  S249                      82.60       0.00       0.00      40.09      24.34      17.99      42.33        0.74     0.44   0.512
  S250                      82.60       0.00       0.00      40.63      24.32      17.42      41.75        0.99     0.56   0.505
  S251                      82.60       0.00       0.00      40.86      24.31      17.18      41.50        1.11     0.62   0.502
  S252                      82.60       0.00       0.00      41.15      24.30      16.87      41.18        1.27     0.70   0.499
  S253                      82.60       0.00       0.00      41.64      24.29      16.36      40.65        1.59     0.85   0.492
  S254                      82.60       0.00       0.00      40.97      24.31      17.06      41.37        1.17     0.65   0.501
  S255                      82.60       0.00       0.00      40.48      24.33      17.58      41.90        0.91     0.53   0.507
  S256                      82.60       0.00       0.00      40.70      24.32      17.35      41.67        1.02     0.58   0.505
  S257                      82.60       0.00       0.00      40.00      24.34      18.08      42.42        0.70     0.42   0.514
  S258                      82.60       0.00       0.00      38.86      24.38      19.31      43.69        0.35     0.23   0.529
  S259                      82.60       0.00       0.00      40.99      24.31      17.04      41.35        1.18     0.66   0.501
  S260                      82.60       0.00       0.00      40.99      24.31      17.04      41.35        1.13     0.63   0.501
  S261                      82.60       0.00       0.00      41.80      24.28      16.20      40.48        1.72     0.91   0.490
  S262                      82.60       0.00       0.00      40.94      24.31      17.09      41.40        1.15     0.64   0.501
  S263                      82.60       0.00       0.00      40.90      24.31      17.15      41.46        1.12     0.63   0.502
  S264                      82.60       0.00       0.00      39.48      24.36      18.65      43.01        0.52     0.32   0.521
  S265                      82.60       0.00       0.00      41.14      24.30      16.88      41.19        1.28     0.70   0.499
  S266                      82.60       0.00       0.00      41.35      24.30      16.67      40.96        1.41     0.76   0.496
  S267                      82.60       0.00       0.00      40.80      24.32      17.25      41.56        1.07     0.60   0.503
  S268                      82.60       0.00       0.00      40.57      24.32      17.48      41.81        0.95     0.55   0.506
  S269                      82.60       0.00       0.00      40.66      24.32      17.39      41.71        1.01     0.57   0.505
  S270                      82.60       0.00       0.00      41.86      24.28      16.14      40.42        1.76     0.92   0.489
  S271                      82.60       0.00       0.00      41.80      24.28      16.20      40.48        1.71     0.90   0.490
  S272                      82.60       0.00       0.00      41.00      24.31      17.03      41.34        1.19     0.66   0.500
  S273                      82.60       0.00       0.00      40.16      24.34      17.91      42.25        0.77     0.45   0.511
  S274                      82.60       0.00       0.00      39.97      24.34      18.12      42.46        0.69     0.41   0.514
  S275                      82.60       0.00       0.00      40.10      24.34      17.98      42.32        0.68     0.40   0.512
  S276                      82.60       0.00       0.00      40.82      24.32      17.23      41.54        1.08     0.61   0.503
  S277                      82.60       0.00       0.00      41.85      24.28      16.15      40.43        1.71     0.90   0.489
  S278                      82.60       0.00       0.00      41.42      24.29      16.59      40.89        1.44     0.78   0.495
  S279                      82.60       0.00       0.00      41.82      24.28      16.18      40.46        1.71     0.90   0.490
  S280                      82.60       0.00       0.00      40.70      24.32      17.35      41.67        1.02     0.58   0.505
  S281                      82.60       0.00       0.00      41.00      24.31      17.03      41.34        1.19     0.66   0.500
  S282                      82.60       0.00       0.00      41.02      24.31      17.01      41.32        1.17     0.65   0.500
  S283                      82.60       0.00       0.00      41.25      24.30      16.77      41.07        1.34     0.73   0.497
  S284                      82.60       0.00       0.00      40.68      24.32      17.38      41.70        1.01     0.57   0.505
  S285                      82.60       0.00       0.00      41.17      24.30      16.85      41.16        1.26     0.69   0.498
  S286                      82.60       0.00       0.00      40.96      24.31      17.07      41.38        1.16     0.65   0.501
  S287                      82.60       0.00       0.00      41.92      24.28      16.08      40.36        1.80     0.94   0.489
  S288                      82.60       0.00       0.00      39.98      24.34      18.10      42.44        0.70     0.42   0.514
  S289                      82.60       0.00       0.00      39.72      24.35      18.39      42.75        0.60     0.37   0.518
  S290                      82.60       0.00       0.00      38.60      24.39      19.61      43.99        0.28     0.19   0.533
  S291                      82.60       0.00       0.00      39.86      24.35      18.23      42.57        0.65     0.39   0.515
  S292                      82.60       0.00       0.00      40.01      24.34      18.07      42.41        0.72     0.43   0.513
  S293                      82.60       0.00       0.00      40.19      24.34      17.88      42.22        0.79     0.46   0.511
  S294                      82.60       0.00       0.00      39.42      24.36      18.71      43.07        0.47     0.29   0.521
  S295                      82.60       0.00       0.00      39.22      24.37      18.93      43.29        0.44     0.28   0.524
  S296                      82.60       0.00       0.00      38.97      24.37      19.20      43.57        0.37     0.24   0.528
  S297                      82.60       0.00       0.00      39.64      24.35      18.49      42.84        0.57     0.35   0.519
  S298                      82.60       0.00       0.00      39.19      24.37      18.96      43.32        0.42     0.27   0.525
  S299                      82.60       0.00       0.00      39.16      24.37      18.99      43.36        0.42     0.27   0.525
  S300                      82.60       0.00       0.00      40.28      24.33      17.79      42.12        0.82     0.48   0.510
  S301                      82.60       0.00       0.00      39.22      24.37      18.93      43.29        0.44     0.28   0.524
  S302                      82.60       0.00       0.00      39.92      24.35      18.17      42.52        0.67     0.40   0.515
  S303                      82.60       0.00       0.00      40.87      24.31      17.18      41.49        1.12     0.63   0.502
  S304                      82.60       0.00       0.00      39.93      24.34      18.15      42.50        0.68     0.41   0.515
  S305                      82.60       0.00       0.00      40.10      24.34      17.98      42.32        0.71     0.42   0.512
  S306                      82.60       0.00       0.00      39.43      24.36      18.70      43.06        0.50     0.32   0.521
  S307                      82.60       0.00       0.00      39.28      24.37      18.86      43.23        0.45     0.28   0.523
  S308                      82.60       0.00       0.00      39.25      24.37      18.90      43.26        0.45     0.29   0.524
  S309                      82.60       0.00       0.00      40.17      24.34      17.90      42.24        0.78     0.46   0.511
  S310                      82.60       0.00       0.00      39.80      24.35      18.29      42.64        0.64     0.39   0.516
  S311                      82.60       0.00       0.00      39.76      24.35      18.35      42.70        0.89     0.54   0.517
  S312                      82.60       0.00       0.00      39.89      24.35      18.20      42.55        0.66     0.40   0.515
  S313                      82.60       0.00       0.00      42.40      24.26      15.58      39.84        2.22     1.13   0.482
  S314                      82.60       0.00       0.00      41.53      24.29      16.48      40.77        1.52     0.81   0.494
  S315                      82.60       0.00       0.00      39.66      24.35      18.46      42.81        0.58     0.36   0.518
  S316                      82.60       0.00       0.00      39.55      24.36      18.57      42.93        0.54     0.33   0.520
  S317                      82.60       0.00       0.00      40.21      24.34      17.86      42.20        0.79     0.46   0.511
  S318                      82.60       0.00       0.00      41.51      24.29      16.50      40.79        1.51     0.81   0.494
  S319                      82.60       0.00       0.00      42.19      24.27      15.79      40.06        2.05     1.06   0.485
  S320                      82.60       0.00       0.00      41.25      24.30      16.77      41.07        1.34     0.73   0.497
  S321                      82.60       0.00       0.00      39.64      24.35      18.48      42.84        0.85     0.52   0.519
  S322                      82.60       0.00       0.00      41.61      24.29      16.40      40.68        1.57     0.84   0.493
  S323                      82.60       0.00       0.00      40.65      24.32      17.40      41.72        1.00     0.57   0.505
  S324                      82.60       0.00       0.00      40.66      24.32      17.39      41.71        1.01     0.57   0.505
  S325                      82.60       0.00       0.00      40.99      24.31      17.04      41.35        1.19     0.66   0.501
  S326                      82.60       0.00       0.00      42.30      24.26      15.68      39.94        2.14     1.09   0.484
  S327                      82.60       0.00       0.00      41.21      24.34      16.81      41.15        1.31     0.72   0.498
  S328                      82.60       0.00       0.00      41.88      24.28      16.12      40.40        1.51     0.79   0.489
  S329                      82.60       0.00       0.00      41.96      24.28      16.04      40.31        1.73     0.90   0.488
  S330                      82.60       0.00       0.00      41.98      24.27      16.02      40.29        1.81     0.94   0.488
  S331                      82.60       0.00       0.00      41.84      24.28      16.16      40.44        1.76     0.93   0.490
  S332                      82.60       0.00       0.00      40.31      24.33      17.76      42.09        0.83     0.49   0.510
  S333                      82.60       0.00       0.00      40.46      24.33      17.60      41.93        0.87     0.50   0.508
  S334                      82.60       0.00       0.00      40.42      24.33      17.65      41.97        0.86     0.50   0.508
  S335                      82.60       0.00       0.00      42.23      24.26      15.75      40.02        2.03     1.04   0.484
  S336                      82.60       0.00       0.00      39.19      24.37      18.96      43.32        0.42     0.27   0.525
  S337                      82.60       0.00       0.00      39.19      24.37      18.96      43.32        0.42     0.27   0.525
  S338                      82.60       0.00       0.00      39.43      24.36      18.70      43.06        0.50     0.32   0.521
  S339                      82.60       0.00       0.00      39.90      24.35      18.19      42.54        0.67     0.40   0.515
  S340                      82.60       0.00       0.00      39.28      24.37      18.86      43.23        0.45     0.28   0.523
  S341                      82.60       0.00       0.00      38.60      24.39      19.61      43.99        0.28     0.19   0.533
  S342                      82.60       0.00       0.00      37.70      24.40      20.65      45.05        0.14     0.10   0.545
  S343                      82.60       0.00       0.00      39.75      24.35      18.37      42.72        0.60     0.37   0.517
  S344                      82.60       0.00       0.00      39.97      24.34      18.11      42.45        0.69     0.41   0.514
  S345                      82.60       0.00       0.00      40.09      24.34      17.98      42.32        0.75     0.44   0.512
  S346                      82.60       0.00       0.00      39.66      24.35      18.46      42.81        0.58     0.36   0.518
  S347                      82.60       0.00       0.00      39.33      24.36      18.81      43.17        0.46     0.29   0.523
  S348                      82.60       0.00       0.00      38.65      24.38      19.55      43.93        0.29     0.20   0.532
  S349                      82.60       0.00       0.00      38.37      24.39      19.88      44.27        0.23     0.16   0.536
  S350                      82.60       0.00       0.00      38.56      24.39      19.67      44.06        0.25     0.17   0.533
  S351                      82.60       0.00       0.00      40.19      24.34      17.88      42.22        0.79     0.46   0.511
  S352                      82.60       0.00       0.00      42.10      24.27      15.89      40.16        1.96     1.02   0.486
  
  
  ******************
  Node Depth Summary
  ******************
  
  ---------------------------------------------------------------------------------
                                 Average  Maximum  Maximum  Time of Max    Reported
                                   Depth    Depth      HGL   Occurrence   Max Depth
  Node                 Type       Meters   Meters   Meters  days hr:min      Meters
  ---------------------------------------------------------------------------------
  J1                   JUNCTION     0.15     3.00    10.16     0  01:12        3.00
  J3                   JUNCTION     0.30     3.00     9.77     0  01:12        3.00
  J5                   JUNCTION     0.38     3.00     9.11     0  01:15        3.00
  J9                   JUNCTION     0.18     3.00    10.15     0  01:10        3.00
  J10                  JUNCTION     0.23     3.00    10.04     0  01:10        3.00
  J11                  JUNCTION     0.28     3.00     9.78     0  01:12        3.00
  J12                  JUNCTION     0.38     3.00     9.43     0  01:16        3.00
  J13                  JUNCTION     0.38     3.00     9.09     0  01:12        3.00
  J14                  JUNCTION     0.36     3.00     8.86     0  01:13        3.00
  J16                  JUNCTION     0.32     3.00     8.67     0  01:15        1.35
  J17                  JUNCTION     0.41     3.00     8.27     0  01:18        3.00
  J19                  JUNCTION     0.23     3.00     8.51     0  01:10        3.00
  J20                  JUNCTION     0.22     3.00     8.37     0  01:13        3.00
  J21                  JUNCTION     0.38     3.00     8.29     0  01:14        3.00
  J22                  JUNCTION     0.53     3.00     8.15     0  01:13        3.00
  J23                  JUNCTION     0.28     3.00     9.37     0  01:12        3.00
  J24                  JUNCTION     0.33     3.00     9.18     0  01:13        3.00
  J25                  JUNCTION     0.34     3.00     9.05     0  01:13        3.00
  J26                  JUNCTION     0.39     3.00     8.87     0  01:14        3.00
  J27                  JUNCTION     0.46     3.00     8.80     0  01:12        3.00
  J28                  JUNCTION     0.54     3.00     8.60     0  01:13        3.00
  J30                  JUNCTION     0.52     3.00     8.25     0  01:15        3.00
  J31                  JUNCTION     0.50     3.00     8.12     0  01:17        2.35
  J33                  JUNCTION     0.29     3.00     8.68     0  01:14        3.00
  J35                  JUNCTION     0.32     3.00     8.43     0  01:13        3.00
  J38                  JUNCTION     0.22     3.00     8.33     0  01:13        3.00
  J41                  JUNCTION     0.27     3.00     8.28     0  01:11        3.00
  J42                  JUNCTION     0.27     3.00     8.21     0  01:13        3.00
  J43                  JUNCTION     0.30     3.00     8.12     0  01:12        3.00
  J45                  JUNCTION     0.38     3.00     8.35     0  01:14        3.00
  J46                  JUNCTION     0.37     3.00     8.26     0  01:15        1.89
  J47                  JUNCTION     0.38     3.00     8.12     0  01:17        1.78
  J49                  JUNCTION     0.24     3.00     8.38     0  01:10        3.00
  J50                  JUNCTION     0.34     2.01     7.12     0  01:17        1.73
  J51                  JUNCTION     0.40     3.00     8.04     0  01:14        3.00
  J52                  JUNCTION     0.19     3.00     8.28     0  01:09        3.00
  J53                  JUNCTION     0.21     3.00     8.16     0  01:11        3.00
  J56                  JUNCTION     0.12     3.00     8.59     0  01:18        0.63
  J57                  JUNCTION     0.27     3.00     8.52     0  01:10        3.00
  J58                  JUNCTION     0.29     3.00     8.41     0  01:11        3.00
  J59                  JUNCTION     0.29     3.00     8.36     0  01:11        3.00
  J60                  JUNCTION     0.30     3.00     8.25     0  01:12        3.00
  J62                  JUNCTION     0.31     3.00     8.43     0  01:14        3.00
  J63                  JUNCTION     0.31     3.00     8.54     0  01:12        3.00
  J64                  JUNCTION     0.27     3.00     8.64     0  01:13        3.00
  J65                  JUNCTION     0.23     3.00     8.84     0  01:11        3.00
  J67                  JUNCTION     0.17     3.00     8.77     0  01:09        3.00
  J68                  JUNCTION     0.18     3.00     8.68     0  01:10        3.00
  J69                  JUNCTION     0.24     3.00     9.08     0  01:09        3.00
  J70                  JUNCTION     0.27     3.00     8.89     0  01:10        3.00
  J72                  JUNCTION     0.22     3.00     8.62     0  01:09        3.00
  J73                  JUNCTION     0.28     3.00     8.69     0  01:12        3.00
  J74                  JUNCTION     0.26     3.00     8.55     0  01:14        3.00
  J75                  JUNCTION     0.29     3.00     8.43     0  01:15        3.00
  J76                  JUNCTION     0.49     3.00     8.30     0  01:15        3.00
  J78                  JUNCTION     0.23     3.00     8.70     0  01:12        3.00
  J79                  JUNCTION     0.23     3.00     8.84     0  01:12        3.00
  J80                  JUNCTION     0.05     3.00     8.94     0  01:16        0.23
  J81                  JUNCTION     0.23     3.00     9.35     0  01:12        3.00
  J82                  JUNCTION     0.31     3.00     9.25     0  01:13        3.00
  J83                  JUNCTION     0.35     3.00     9.11     0  01:14        3.00
  J84                  JUNCTION     0.39     3.00     8.91     0  01:15        3.00
  J85                  JUNCTION     0.42     3.00     8.71     0  01:15        1.88
  J87                  JUNCTION     0.50     3.00     8.19     0  01:17        3.00
  J92                  JUNCTION     0.25     3.00     9.12     0  01:09        3.00
  J94                  JUNCTION     0.25     3.00     9.60     0  01:13        3.00
  J95                  JUNCTION     0.29     3.00     9.37     0  01:14        3.00
  J96                  JUNCTION     0.32     3.00     9.22     0  01:14        3.00
  J97                  JUNCTION     0.36     3.00     9.00     0  01:14        3.00
  J98                  JUNCTION     0.41     3.00     8.69     0  01:16        1.79
  J99                  JUNCTION     0.46     3.00     8.59     0  01:15        3.00
  J100                 JUNCTION     0.49     3.00     8.43     0  01:14        3.00
  J101                 JUNCTION     0.50     3.00     8.29     0  01:15        2.28
  J102                 JUNCTION     0.52     3.00     8.07     0  01:16        3.00
  J104                 JUNCTION     0.36     3.00     8.09     0  01:14        3.00
  J106                 JUNCTION     0.35     3.00     8.11     0  01:13        3.00
  J107                 JUNCTION     0.40     3.00     7.99     0  01:13        3.00
  J108                 JUNCTION     0.24     3.00     8.41     0  01:13        3.00
  J109                 JUNCTION     0.19     3.00     8.59     0  01:12        3.00
  J110                 JUNCTION     0.32     3.00     8.35     0  01:13        3.00
  J111                 JUNCTION     0.30     3.00     8.53     0  01:12        3.00
  J112                 JUNCTION     0.23     3.00     8.72     0  01:11        3.00
  J114                 JUNCTION     0.22     3.00     8.79     0  01:12        3.00
  J115                 JUNCTION     0.17     3.00     8.43     0  01:12        3.00
  J116                 JUNCTION     0.18     3.00     8.27     0  01:15        3.00
  J117                 JUNCTION     0.26     3.00     8.18     0  01:12        3.00
  J118                 JUNCTION     0.24     3.00     8.80     0  01:13        3.00
  J119                 JUNCTION     0.25     3.00     8.93     0  01:12        3.00
  J120                 JUNCTION     0.21     3.00     9.13     0  01:10        3.00
  J121                 JUNCTION     0.20     3.00     9.20     0  01:11        3.00
  J122                 JUNCTION     0.23     3.00     9.05     0  01:12        3.00
  J123                 JUNCTION     0.23     3.00     8.94     0  01:14        3.00
  J124                 JUNCTION     0.26     3.00     9.07     0  01:10        3.00
  J125                 JUNCTION     0.27     3.00     8.97     0  01:12        3.00
  J126                 JUNCTION     0.25     3.00     8.84     0  01:14        3.00
  J127                 JUNCTION     0.17     3.00     9.23     0  01:12        3.00
  J129                 JUNCTION     0.17     3.00     9.21     0  01:13        3.00
  J130                 JUNCTION     0.25     3.00     8.15     0  01:11        3.00
  J131                 JUNCTION     0.19     3.00     8.32     0  01:11        3.00
  J132                 JUNCTION     0.32     3.00     8.25     0  01:13        3.00
  J133                 JUNCTION     0.26     3.00     8.42     0  01:12        3.00
  J134                 JUNCTION     0.24     3.00     8.55     0  01:10        3.00
  J135                 JUNCTION     0.22     3.00     9.45     0  01:10        3.00
  J136                 JUNCTION     0.16     3.00     8.95     0  01:11        3.00
  J137                 JUNCTION     0.17     3.00     8.90     0  01:13        3.00
  J138                 JUNCTION     0.24     3.00     8.70     0  01:12        3.00
  J39                  JUNCTION     0.18     3.00     8.47     0  01:13        3.00
  J139                 JUNCTION     0.26     3.00     8.78     0  01:10        3.00
  J140                 JUNCTION     0.15     3.00     8.72     0  01:13        3.00
  J141                 JUNCTION     0.22     1.34     7.01     0  01:14        1.33
  J142                 JUNCTION     0.22     1.33     6.96     0  01:17        1.32
  J143                 JUNCTION     0.22     3.00     8.74     0  01:13        1.40
  J144                 JUNCTION     0.25     3.00     8.81     0  01:12        3.00
  J145                 JUNCTION     0.32     3.00     8.53     0  01:14        3.00
  J146                 JUNCTION     0.15     3.00     8.51     0  01:12        3.00
  J147                 JUNCTION     0.13     3.00     8.41     0  01:14        3.00
  J148                 JUNCTION     0.29     3.00     8.51     0  01:12        3.00
  J149                 JUNCTION     0.26     3.00     8.57     0  01:13        3.00
  J150                 JUNCTION     0.26     3.00     8.65     0  01:12        3.00
  J151                 JUNCTION     0.46     3.00     8.31     0  01:13        3.00
  J152                 JUNCTION     0.17     3.00     8.56     0  01:13        1.10
  J153                 JUNCTION     0.20     3.00     8.62     0  01:10        3.00
  J155                 JUNCTION     0.15     3.00     8.65     0  01:09        3.00
  J6                   JUNCTION     0.33     1.73     7.59     0  01:24        1.69
  J36                  JUNCTION     0.39     3.00     8.26     0  01:12        3.00
  J157                 JUNCTION     0.22     3.00     8.44     0  01:12        3.00
  J158                 JUNCTION     0.27     3.00     8.37     0  01:11        3.00
  J160                 JUNCTION     0.30     3.00     8.20     0  01:12        3.00
  J161                 JUNCTION     0.25     3.00     8.13     0  01:14        1.60
  J162                 JUNCTION     0.24     1.44     6.51     0  01:14        1.37
  J163                 JUNCTION     0.17     3.00     8.52     0  01:12        3.00
  J164                 JUNCTION     0.17     3.00     8.59     0  01:11        3.00
  J159                 JUNCTION     0.27     3.00     8.26     0  01:12        3.00
  J44                  JUNCTION     0.40     3.00     8.45     0  01:13        3.00
  OUT1                 OUTFALL      0.38     2.00     7.00     0  01:32        1.69
  OUT2                 OUTFALL      0.33     1.46     6.46     0  01:25        1.43
  OUT3                 OUTFALL      0.40     2.40     7.40     0  01:17        2.14
  OUT4                 OUTFALL      0.48     2.50     7.50     0  01:23        2.25
  OUT5                 OUTFALL      0.24     1.50     6.50     0  01:26        1.39
  OUT6                 OUTFALL      0.37     2.10     7.10     0  01:18        1.75
  OUT7                 OUTFALL      0.15     1.00     6.26     0  01:14        1.00
  OUT8                 OUTFALL      0.36     2.09     7.00     0  01:18        1.93
  OUT9                 OUTFALL      0.17     1.20     6.27     0  01:15        1.11
  OUT10                OUTFALL      0.44     2.31     7.31     0  01:37        2.06
  OUT11                OUTFALL      0.51     2.80     7.80     0  01:19        2.50
  OUT12                OUTFALL      0.37     2.20     7.01     0  01:24        1.89
  OUT13                OUTFALL      0.22     1.60     6.60     0  01:20        1.30
  OUT14                OUTFALL      0.28     1.77     7.23     0  01:24        1.66
  OUT15                OUTFALL      0.32     2.00     7.00     0  01:17        1.53
  OUT17                OUTFALL      0.29     1.76     7.08     0  01:16        1.51
  DV1                  DIVIDER      0.00     0.00     5.53     0  00:00        0.00
  DV2                  DIVIDER      0.00     0.00     5.85     0  00:00        0.00
  J88                  DIVIDER      0.19     3.00     8.81     0  01:12        3.00
  J128                 DIVIDER      0.12     0.90     6.86     0  01:11        0.90
  J91                  DIVIDER      0.21     1.30     7.72     0  01:10        1.30
  J61                  DIVIDER      0.24     1.39     7.22     0  01:15        1.38
  J7                   DIVIDER      0.75     2.00     7.56     0  01:23        1.57
  J40                  DIVIDER      0.13     1.00     6.55     0  01:12        1.00
  J34                  DIVIDER      0.30     1.40     7.02     0  01:11        1.40
  J93                  DIVIDER      0.17     1.20     8.02     0  01:12        1.20
  DV3                  DIVIDER      0.08     0.60     6.49     0  01:10        0.60
  J2                   DIVIDER      0.16     1.10     8.14     0  01:11        1.10
  J4                   DIVIDER      0.34     3.00     9.42     0  01:14        3.00
  J8                   DIVIDER      0.67     2.00     7.15     0  01:24        2.00
  DV4                  DIVIDER      0.14     1.10     7.42     0  01:13        1.10
  J113                 DIVIDER      0.11     0.90     6.95     0  01:12        0.90
  J15                  DIVIDER      0.66     3.00     8.47     0  01:18        1.70
  J18                  DIVIDER      0.53     1.54     6.70     0  01:37        1.44
  J29                  DIVIDER      0.77     3.00     8.44     0  01:16        2.70
  J32                  DIVIDER      0.22     1.40     7.16     0  01:15        1.40
  J37                  DIVIDER      0.48     2.30     7.47     0  01:15        2.30
  J71                  DIVIDER      0.21     1.40     7.18     0  01:13        1.40
  J89                  DIVIDER      0.15     1.00     7.00     0  01:10        1.00
  J105                 DIVIDER      0.14     1.00     6.24     0  01:10        1.00
  J86                  DIVIDER      0.60     3.00     8.51     0  01:18        2.40
  J90                  DIVIDER      0.19     1.30     7.17     0  01:11        1.30
  J77                  DIVIDER      0.31     3.00     8.59     0  01:14        3.00
  J55                  DIVIDER      0.19     1.40     7.12     0  01:15        1.10
  J154                 DIVIDER      0.12     0.80     6.49     0  01:09        0.80
  J103                 DIVIDER      0.30     2.00     7.19     0  01:15        2.00
  J66                  DIVIDER      0.16     3.00     8.96     0  01:15        3.00
  J54                  DIVIDER      0.33     3.00     8.40     0  01:14        3.00
  J48                  DIVIDER      0.30     1.80     7.34     0  01:12        1.80
  ST2                  STORAGE      0.85     1.12     3.12     0  06:00        1.12
  ST3                  STORAGE      2.37     3.00     5.00     0  01:32        3.00
  ST4                  STORAGE      1.25     1.66     3.66     0  06:00        1.66
  ST5                  STORAGE      1.13     1.50     2.50     0  06:00        1.50
  ST6                  STORAGE      0.88     1.16     2.16     0  06:00        1.16
  ST7                  STORAGE      1.30     1.72     2.72     0  06:00        1.72
  ST8                  STORAGE      1.35     1.80     2.80     0  06:00        1.80
  ST9                  STORAGE      1.14     1.51     2.51     0  06:00        1.51
  ST10                 STORAGE      1.53     2.03     3.03     0  06:00        2.03
  ST11                 STORAGE      2.37     3.00     4.00     0  01:34        3.00
  ST12                 STORAGE      0.60     0.79     2.79     0  06:00        0.79
  ST13                 STORAGE      1.48     1.96     2.96     0  06:00        1.96
  
  
  *******************
  Node Inflow Summary
  *******************
  
  -------------------------------------------------------------------------------------------------
                                  Maximum  Maximum                  Lateral       Total        Flow
                                  Lateral    Total  Time of Max      Inflow      Inflow     Balance
                                   Inflow   Inflow   Occurrence      Volume      Volume       Error
  Node                 Type           CMS      CMS  days hr:min    10^6 ltr    10^6 ltr     Percent
  -------------------------------------------------------------------------------------------------
  J1                   JUNCTION     0.568    0.568     0  01:15       0.997       0.997      -0.000
  J3                   JUNCTION     1.288    2.058     0  01:15        2.59        4.55       0.000
  J5                   JUNCTION     0.812    3.940     0  01:18        1.51        10.6      -0.000
  J9                   JUNCTION     0.496    0.496     0  01:15       0.856       0.856      -0.000
  J10                  JUNCTION     0.504    0.850     0  01:15       0.872        1.69      -0.000
  J11                  JUNCTION     0.487    1.123     0  01:15       0.833        2.47       0.000
  J12                  JUNCTION     0.000    1.025     0  01:18           0        2.46       0.000
  J13                  JUNCTION     1.006    2.125     0  01:20        1.74        5.77       0.000
  J14                  JUNCTION     0.735    2.765     0  01:16         1.2        7.57      -0.000
  J16                  JUNCTION     0.372    2.707     0  01:17       0.611           8       0.000
  J17                  JUNCTION     0.286    2.908     0  01:27        0.45        9.17      -0.000
  J19                  JUNCTION     1.183    1.183     0  01:15        2.09        2.32      -0.000
  J20                  JUNCTION     0.776    1.597     0  01:15         1.3        3.52      -0.000
  J21                  JUNCTION     0.478    4.767     0  01:17       0.742          11       0.000
  J22                  JUNCTION     1.019    7.987     0  01:17        1.67        18.9       0.000
  J23                  JUNCTION     2.231    2.494     0  01:17        4.38        4.77       0.000
  J24                  JUNCTION     1.918    3.826     0  01:15        3.67        8.23      -0.000
  J25                  JUNCTION     1.414    4.662     0  01:15        2.54        10.6      -0.000
  J26                  JUNCTION     0.807    5.698     0  01:20         1.5        14.1       0.000
  J27                  JUNCTION     1.695    9.310     0  01:16        2.83        21.9      -0.000
  J28                  JUNCTION     1.298    9.908     0  01:16        2.07        24.5      -0.000
  J30                  JUNCTION     1.081   10.213     0  01:18        1.85        28.4       0.000
  J31                  JUNCTION     0.637   10.030     0  01:19        1.02          29       0.000
  J33                  JUNCTION     1.192    3.340     0  01:17        1.99        6.33       0.000
  J35                  JUNCTION     0.364    4.288     0  01:14       0.547        9.18       0.000
  J38                  JUNCTION     0.990    1.823     0  01:15        1.61        3.33       0.000
  J41                  JUNCTION     0.719    2.336     0  01:15        1.21        4.48       0.000
  J42                  JUNCTION     0.000    1.999     0  01:22           0        4.34       0.000
  J43                  JUNCTION     0.771    2.609     0  01:15        1.29        5.61       0.000
  J45                  JUNCTION     0.517    6.060     0  01:16       0.804        14.7       0.000
  J46                  JUNCTION     0.755    6.874     0  01:16        1.24        15.9      -0.000
  J47                  JUNCTION     0.650    7.347     0  01:17        1.05        16.9       0.000
  J49                  JUNCTION     0.857    1.352     0  01:17        1.42        1.73       0.000
  J50                  JUNCTION     0.334    6.417     0  01:17       0.534        14.4       0.000
  J51                  JUNCTION     0.562    6.774     0  01:17       0.884        15.3      -0.000
  J52                  JUNCTION     0.358    0.528     0  01:15        0.58       0.662      -0.000
  J53                  JUNCTION     0.985    1.228     0  01:15        1.69        2.25      -0.000
  J56                  JUNCTION     0.179    0.410     0  01:20       0.268       0.629       0.000
  J57                  JUNCTION     1.081    2.036     0  01:15        1.77        3.93      -0.000
  J58                  JUNCTION     0.608    2.216     0  01:13       0.971        4.72       0.000
  J59                  JUNCTION     0.540    2.406     0  01:12       0.845        5.45      -0.000
  J60                  JUNCTION     0.613    2.907     0  01:15       0.981        6.39       0.000
  J62                  JUNCTION     1.910    4.288     0  01:15        3.74        9.41       0.000
  J63                  JUNCTION     0.437    2.803     0  01:16       0.737        5.93      -0.000
  J64                  JUNCTION     1.307    2.640     0  01:15        2.39        5.25       0.000
  J65                  JUNCTION     0.759    1.634     0  01:15        1.26        2.93       0.000
  J67                  JUNCTION     0.350    0.358     0  01:17       0.565       0.573       0.000
  J68                  JUNCTION     0.516    0.759     0  01:15       0.804        1.34      -0.000
  J69                  JUNCTION     0.759    0.759     0  01:15         1.4        1.43      -0.000
  J70                  JUNCTION     0.617    1.091     0  01:15         1.1        2.44       0.000
  J72                  JUNCTION     0.947    0.956     0  01:15        1.62        1.64      -0.000
  J73                  JUNCTION     0.902    2.470     0  01:15        1.53        5.23      -0.000
  J74                  JUNCTION     0.646    2.605     0  01:15        1.16        6.19       0.000
  J75                  JUNCTION     0.386    2.998     0  01:15       0.635        6.81       0.000
  J76                  JUNCTION     1.501    8.608     0  01:20        2.69        23.1       0.000
  J78                  JUNCTION     0.736    1.570     0  01:15        1.21        3.03      -0.000
  J79                  JUNCTION     0.799    1.807     0  01:19        1.33        2.17       0.000
  J80                  JUNCTION     0.000    1.272     0  01:17           0       0.524       0.000
  J81                  JUNCTION     1.234    2.044     0  01:15         2.2        4.12      -0.000
  J82                  JUNCTION     1.183    4.361     0  01:15         2.1        9.37      -0.000
  J83                  JUNCTION     1.842    5.857     0  01:15        3.51        12.8       0.000
  J84                  JUNCTION     1.423    6.569     0  01:17        2.59        15.3      -0.000
  J85                  JUNCTION     1.710    7.589     0  01:18        3.08        18.3      -0.000
  J87                  JUNCTION     0.192    7.950     0  01:18       0.286        22.7      -0.000
  J92                  JUNCTION     1.229    1.349     0  01:17        2.19        2.36       0.000
  J94                  JUNCTION     1.223    2.251     0  01:15        2.03        4.32       0.000
  J95                  JUNCTION     0.421    2.273     0  01:17       0.704        4.97       0.000
  J96                  JUNCTION     2.108    4.711     0  01:16        3.69          10      -0.000
  J97                  JUNCTION     0.852    5.359     0  01:18        1.47        12.3       0.000
  J98                  JUNCTION     1.412    5.744     0  01:19        2.58        14.7      -0.000
  J99                  JUNCTION     0.902    8.069     0  01:19        1.53        20.2       0.000
  J100                 JUNCTION     1.758    8.476     0  01:18        3.33        22.6       0.000
  J101                 JUNCTION     1.679   11.118     0  01:18        2.97        29.5       0.000
  J102                 JUNCTION     1.071   11.095     0  01:25        1.81        31.1       0.000
  J104                 JUNCTION     0.706    4.985     0  01:18        1.16          11       0.000
  J106                 JUNCTION     1.487    5.366     0  01:15        2.59        11.9      -0.000
  J107                 JUNCTION     1.234    7.339     0  01:16        2.08          17      -0.000
  J108                 JUNCTION     1.157    2.173     0  01:15        2.04        4.19      -0.000
  J109                 JUNCTION     1.223    1.223     0  01:15        2.17        2.17       0.000
  J110                 JUNCTION     1.270    3.645     0  01:15        2.27        8.12      -0.000
  J111                 JUNCTION     1.667    2.998     0  01:15        3.12         6.1       0.000
  J112                 JUNCTION     1.628    1.628     0  01:15        3.04        3.04       0.000
  J114                 JUNCTION     0.984    1.606     0  01:15        1.59        2.88       0.000
  J115                 JUNCTION     0.790    0.790     0  01:15        1.31        1.31      -0.000
  J116                 JUNCTION     0.952    1.609     0  01:15        1.57        2.86      -0.000
  J117                 JUNCTION     1.236    2.736     0  01:17        2.23        5.08       0.000
  J118                 JUNCTION     0.688    2.039     0  01:15        1.12        4.24       0.000
  J119                 JUNCTION     0.986    1.656     0  01:15        1.67        3.22       0.000
  J120                 JUNCTION     0.869    0.869     0  01:15         1.6         1.6      -0.000
  J121                 JUNCTION     1.099    1.099     0  01:15        1.92        1.92      -0.000
  J122                 JUNCTION     0.945    1.796     0  01:15        1.61        3.47       0.000
  J123                 JUNCTION     0.377    1.996     0  01:15       0.619        4.06       0.000
  J124                 JUNCTION     1.165    1.797     0  01:15        2.02        3.36      -0.000
  J125                 JUNCTION     0.000    1.365     0  01:13           0        3.17       0.000
  J126                 JUNCTION     0.393    1.628     0  01:15       0.641         3.8       0.000
  J127                 JUNCTION     0.753    0.753     0  01:15        1.35        1.35       0.000
  J129                 JUNCTION     0.948    0.957     0  01:15        1.62        1.64       0.000
  J130                 JUNCTION     1.061    1.730     0  01:15        1.86        3.27       0.000
  J131                 JUNCTION     0.838    0.838     0  01:15        1.44        1.44       0.000
  J132                 JUNCTION     1.549    3.777     0  01:15        2.88        8.08       0.000
  J133                 JUNCTION     1.445    2.468     0  01:15        2.64        5.24       0.000
  J134                 JUNCTION     1.482    1.482     0  01:15        2.73        2.73      -0.000
  J135                 JUNCTION     1.141    1.316     0  01:16           2        2.08       0.000
  J136                 JUNCTION     0.609    0.628     0  01:15       0.973        0.99      -0.000
  J137                 JUNCTION     0.709    0.757     0  01:20        1.16         1.3       0.000
  J138                 JUNCTION     0.819    2.154     0  01:15        1.36        4.16       0.000
  J39                  JUNCTION     0.308    0.985     0  01:15       0.491        1.74       0.000
  J139                 JUNCTION     0.478    1.372     0  01:20       0.739        1.62      -0.000
  J140                 JUNCTION     0.308    0.652     0  01:15       0.444        1.28      -0.000
  J141                 JUNCTION     0.136    2.691     0  01:14       0.188        5.59       0.000
  J142                 JUNCTION     0.000    2.666     0  01:17           0        5.59       0.000
  J143                 JUNCTION     0.321    1.955     0  01:14       0.468        4.14       0.000
  J144                 JUNCTION     0.455    1.873     0  01:15       0.701        3.77      -0.000
  J145                 JUNCTION     0.137    4.427     0  01:15       0.196        9.61      -0.000
  J146                 JUNCTION     0.413    0.575     0  01:15       0.632       0.715      -0.000
  J147                 JUNCTION     0.307    0.673     0  01:15       0.488        1.15       0.000
  J148                 JUNCTION     0.351    2.720     0  01:15       0.526        5.42       0.000
  J149                 JUNCTION     0.526    2.518     0  01:15       0.819        4.92      -0.000
  J150                 JUNCTION     0.522    2.267     0  01:17       0.818        4.25      -0.000
  J151                 JUNCTION     0.072    5.858     0  01:16       0.101        12.7      -0.000
  J152                 JUNCTION     0.191    1.050     0  01:14       0.289        2.07       0.000
  J153                 JUNCTION     0.634    0.979     0  01:15        1.02        1.82       0.000
  J155                 JUNCTION     0.223    0.361     0  01:16        0.34        0.39       0.000
  J6                   JUNCTION     0.000    3.750     0  01:24           0        10.5       0.000
  J36                  JUNCTION     0.575    6.039     0  01:15       0.906        13.4      -0.000
  J157                 JUNCTION     1.028    1.868     0  01:15        1.67        3.33       0.000
[...]
  D125                 CONDUIT     0.699     0  01:14      1.03    1.08    1.00
  D126                 CONDUIT     4.888     0  01:16      1.54    1.08    0.95
  D127                 CONDUIT     6.947     0  01:24      1.69    1.08    0.94
  D128                 CONDUIT     1.101     0  01:19      1.14    1.08    0.92
  D129                 CONDUIT     1.992     0  01:21      1.27    1.08    0.95
  D130                 CONDUIT     1.367     0  01:21      1.19    1.08    0.96
  D131                 CONDUIT     2.379     0  01:25      1.35    1.08    1.00
  D132                 CONDUIT     3.251     0  01:21      1.41    1.08    0.94
  D137                 CONDUIT     0.000     0  00:00      0.00    0.00    0.00
  D138                 CONDUIT     0.673     0  01:20      1.02    1.07    0.95
  D139                 CONDUIT     1.628     0  01:17      1.20    1.06    0.90
  D140                 CONDUIT     2.382     0  01:19      1.35    1.08    0.97
  D141                 CONDUIT     0.680     0  01:22      1.00    1.08    1.00
  D142                 CONDUIT     1.366     0  01:15      1.14    1.08    1.00
  D143                 CONDUIT     1.986     0  01:17      1.24    1.07    0.91
  D144                 CONDUIT     0.876     0  01:15      1.06    1.08    1.00
  D145                 CONDUIT     1.663     0  01:19      1.20    1.08    0.94
  D146                 CONDUIT     1.994     0  01:20      1.26    1.08    0.92
  D147                 CONDUIT     0.679     0  01:19      1.01    1.08    0.93
  D148                 CONDUIT     1.365     0  01:13      1.15    1.08    1.00
  D149                 CONDUIT     1.362     0  01:24      1.16    1.08    0.92
  D150                 CONDUIT     1.639     0  01:19      1.17    1.07    0.92
  D151                 CONDUIT     0.525     0  01:20      0.98    1.08    0.97
  D152                 CONDUIT     0.116     0  01:18      1.60    0.34    0.35
  D156                 CONDUIT     0.679     0  01:16      1.01    1.08    0.97
  D157                 CONDUIT     1.365     0  01:15      1.18    1.08    1.00
  D158                 CONDUIT     1.104     0  01:21      1.10    1.08    1.00
  D159                 CONDUIT     2.377     0  01:18      1.32    1.08    0.92
  D160                 CONDUIT     3.239     0  01:16      1.43    1.08    1.00
  D161                 CONDUIT     0.000     0  00:00      0.00    0.00    0.00
  D162                 CONDUIT     0.000     0  00:00      0.00    0.00    0.00
  D163                 CONDUIT     0.000     0  00:00      0.00    0.00    0.00
  D164                 CONDUIT     0.000     0  00:00      0.00    0.00    0.00
  D165                 CONDUIT     0.171     0  01:19      0.70    1.08    1.00
  D166                 CONDUIT     0.047     0  01:17      1.29    0.19    0.28
  D167                 CONDUIT     0.233     0  01:16      2.78    0.41    0.44
  D168                 CONDUIT     0.862     0  01:19      1.08    1.07    0.95
  D169                 CONDUIT     0.084     0  01:17      1.52    0.34    0.34
  D170                 CONDUIT     0.859     0  01:18      1.03    1.08    0.93
  D171                 CONDUIT     0.515     0  01:15      0.92    1.07    1.00
  D172                 CONDUIT     0.078     0  01:17      1.47    0.23    0.27
  D173                 CONDUIT     0.511     0  01:15      0.94    1.08    1.00
  D174                 CONDUIT     0.318     0  01:20      1.54    0.92    0.78
  D175                 CONDUIT     0.679     0  01:24      1.02    1.08    0.94
  D176                 CONDUIT     1.358     0  01:21      1.12    1.08    1.00
  D177                 CONDUIT     1.995     0  01:19      1.24    1.08    0.94
  D178                 CONDUIT     1.429     0  01:15      1.19    1.08    1.00
  D179                 CONDUIT     1.658     0  01:14      1.18    1.08    1.00
  D180                 CONDUIT     1.948     0  01:14      1.22    1.05    0.90
  D181                 CONDUIT     2.666     0  01:17      1.35    0.90    0.74
  D182                 CONDUIT     2.657     0  01:17      1.33    0.89    0.74
  D183                 CONDUIT     1.098     0  01:21      2.21    1.08    0.96
  D184                 CONDUIT     0.372     0  01:13      0.93    1.08    1.00
  D185                 CONDUIT     0.669     0  01:16      0.94    1.06    0.91
  D186                 CONDUIT     4.290     0  01:15      1.49    1.08    1.00
  D187                 CONDUIT     4.256     0  01:24      1.50    1.06    0.93
  D188                 CONDUIT     0.374     0  01:22      0.90    1.08    1.00
  D189                 CONDUIT     0.658     0  01:17      0.96    1.05    0.89
  D190                 CONDUIT     1.869     0  01:20      1.35    1.06    0.94
  D191                 CONDUIT     1.994     0  01:15      1.27    1.08    1.00
  D192                 CONDUIT     2.369     0  01:15      1.29    1.08    0.96
  D193                 CONDUIT     2.357     0  01:14      1.31    1.08    1.00
  D194                 CONDUIT     4.859     0  01:20      1.56    1.07    0.94
  D195                 CONDUIT     0.171     0  01:21      0.72    1.07    1.00
  D196                 CONDUIT     0.149     0  01:16      1.12    0.43    0.45
  D197                 CONDUIT     0.373     0  01:12      0.85    1.08    1.00
  D198                 CONDUIT     0.869     0  01:14      1.02    1.08    1.00
  D199                 CONDUIT     1.082     0  01:14      1.07    1.06    0.90
  D200                 CONDUIT     4.337     0  01:17      1.53    1.08    1.00
  D202                 CONDUIT     2.638     0  01:14      1.33    1.03    0.87
  D203                 CONDUIT     2.375     0  01:14      1.32    1.08    1.00
  D204                 CONDUIT     2.339     0  01:14      1.30    1.06    0.94
  D205                 CONDUIT     1.997     0  01:14      1.27    1.08    1.00
  D206                 CONDUIT     1.658     0  01:15      1.20    1.08    1.00
  D208                 CONDUIT     0.510     0  01:14      0.92    1.08    1.00
  D209                 CONDUIT     0.871     0  01:18      1.02    1.08    0.93
  D210                 CONDUIT     2.523     0  01:15      1.34    0.84    0.70
  
  
  *************************
  Conduit Surcharge Summary
  *************************
  
  ----------------------------------------------------------------------------
                                                           Hours        Hours 
                         --------- Hours Full --------   Above Full   Capacity
  Conduit                Both Ends  Upstream  Dnstream   Normal Flow   Limited
  ----------------------------------------------------------------------------
  D1                          0.09      0.09      0.09      0.10         0.09
  D2                          0.17      0.17      0.17      0.13         0.17
  D3                          0.23      0.23      0.23      0.24         0.23
  D4                          0.22      0.22      0.22      0.28         0.22
  D5                          0.20      0.20      0.20      0.22         0.20
  D7                          0.13      0.13      0.13      0.14         0.13
  D8                          0.24      0.24      0.24      0.26         0.24
  D9                          0.17      0.17      0.17      0.17         0.17
  D10                         0.21      0.21      0.21      0.17         0.21
  D11                         0.28      0.28      0.28      0.29         0.28
  D12                         0.33      0.33      0.33      0.26         0.33
  D13                         0.38      0.38      0.38      0.41         0.38
  D14                         0.21      0.21      0.21      0.11         0.21
  D15                         0.04      0.04      0.04      0.03         0.04
  D16                         0.24      0.24      0.24      0.23         0.24
  D17                         0.31      0.31      0.31      0.32         0.31
  D20                         0.18      0.18      0.18      0.18         0.18
  D21                         0.07      0.07      0.07      0.05         0.07
  D22                         0.17      0.17      0.17      0.17         0.17
  D23                         0.25      0.25      0.25      0.27         0.25
  D24                         0.09      0.09      0.09      0.04         0.09
  D25                         0.19      0.19      0.19      0.20         0.19
  D26                         0.20      0.20      0.20      0.22         0.20
  D27                         0.11      0.11      0.11      0.12         0.11
  D28                         0.18      0.18      0.18      0.18         0.18
  D29                         0.28      0.28      0.28      0.30         0.28
  D30                         0.33      0.33      0.33      0.33         0.33
  D31                         0.24      0.24      0.24      0.28         0.24
  D32                         0.33      0.33      0.33      0.33         0.33
  D33                         0.11      0.11      0.11      0.12         0.11
  D37                         0.14      0.14      0.14      0.14         0.14
  D38                         0.18      0.18      0.18      0.20         0.18
  D39                         0.24      0.24      0.24      0.24         0.24
  D41                         0.11      0.11      0.11      0.04         0.11
  D42                         0.18      0.18      0.18      0.19         0.18
  D43                         0.19      0.19      0.19      0.09         0.19
  D44                         0.23      0.23      0.23      0.23         0.23
  D45                         0.04      0.04      0.04      0.03         0.04
  D46                         0.23      0.23      0.23      0.07         0.23
  D47                         0.03      0.03      0.03      0.03         0.03
  D48                         0.03      0.03      0.03      0.03         0.03
  D49                         0.02      0.02      0.02      0.02         0.02
  D50                         0.12      0.12      0.12      0.13         0.12
  D52                         0.26      0.26      0.26      0.06         0.26
  D53                         0.03      0.03      0.03      0.02         0.03
  D55                         0.23      0.23      0.23      0.23         0.23
  D56                         0.12      0.12      0.12      0.12         0.12
  D57                         0.09      0.09      0.09      0.02         0.09
  D58                         0.23      0.23      0.23      0.23         0.23
  D59                         0.12      0.12      0.12      0.07         0.12
  D60                         0.04      0.04      0.04      0.04         0.04
  D62                         0.05      0.05      0.05      0.05         0.05
  D63                         0.22      0.22      0.22      0.05         0.22
  D64                         0.21      0.21      0.21      0.22         0.21
  D65                         0.17      0.17      0.17      0.17         0.17
  D66                         0.18      0.18      0.18      0.17         0.18
  D67                         0.12      0.12      0.12      0.12         0.12
  D68                         0.09      0.09      0.09      0.08         0.09
  D70                         0.03      0.03      0.03      0.03         0.03
  D71                         0.21      0.21      0.21      0.05         0.21
  D72                         0.12      0.12      0.12      0.12         0.12
  D73                         0.15      0.15      0.15      0.16         0.15
  D74                         0.11      0.11      0.11      0.11         0.11
  D75                         0.02      0.02      0.02      0.01         0.02
  D77                         0.17      0.17      0.17      0.17         0.17
  D78                         0.13      0.13      0.13      0.14         0.13
  D80                         0.25      0.25      0.25      0.28         0.25
  D81                         0.26      0.26      0.26      0.28         0.26
  D83                         0.18      0.18      0.18      0.20         0.18
  D84                         0.07      0.07      0.07      0.06         0.07
  D85                         0.17      0.17      0.17      0.19         0.17
  D86                         0.02      0.02      0.02      0.01         0.02
  D87                         0.09      0.09      0.09      0.11         0.09
  D88                         0.09      0.09      0.09      0.01         0.09
  D89                         0.13      0.13      0.13      0.16         0.13
  D90                         0.25      0.25      0.25      0.06         0.25
  D91                         0.05      0.05      0.05      0.03         0.05
  D92                         0.02      0.02      0.02      0.01         0.02
  D94                         0.20      0.20      0.20      0.22         0.20
  D95                         0.18      0.18      0.18      0.04         0.18
  D96                         0.09      0.09      0.09      0.09         0.09
  D97                         0.10      0.10      0.10      0.10         0.10
  D98                         0.12      0.12      0.12      0.13         0.12
  D99                         0.17      0.17      0.17      0.17         0.17
  D100                        0.22      0.22      0.22      0.23         0.22
  D101                        0.28      0.28      0.28      0.29         0.28
  D102                        0.33      0.33      0.33      0.04         0.33
  D103                        0.34      0.34      0.34      0.30         0.34
  D104                        0.14      0.14      0.14      0.14         0.14
  D106                        0.17      0.17      0.17      0.17         0.17
  D108                        0.24      0.24      0.24      0.08         0.24
  D110                        0.17      0.17      0.17      0.17         0.17
  D112                        0.12      0.12      0.12      0.12         0.12
  D113                        0.12      0.12      0.12      0.13         0.12
  D114                        0.21      0.21      0.21      0.23         0.21
  D115                        0.10      0.10      0.10      0.12         0.10
  D116                        0.17      0.17      0.17      0.18         0.17
  D117                        0.23      0.23      0.23      0.24         0.23
  D118                        0.29      0.29      0.29      0.31         0.29
  D119                        0.33      0.33      0.33      0.33         0.33
  D120                        0.17      0.17      0.17      0.18         0.17
  D121                        0.25      0.25      0.25      0.27         0.25
  D123                        0.06      0.06      0.06      0.05         0.06
  D125                        0.15      0.15      0.15      0.06         0.15
  D126                        0.14      0.14      0.14      0.16         0.14
  D127                        0.18      0.18      0.18      0.19         0.18
  D128                        0.09      0.09      0.09      0.08         0.09
  D129                        0.12      0.12      0.12      0.12         0.12
  D130                        0.12      0.12      0.12      0.12         0.12
  D131                        0.19      0.19      0.19      0.07         0.19
  D132                        0.15      0.15      0.15      0.19         0.15
  D138                        0.11      0.11      0.11      0.11         0.11
  D139                        0.03      0.03      0.03      0.03         0.03
  D140                        0.13      0.13      0.13      0.14         0.13
  D141                        0.16      0.16      0.16      0.10         0.16
  D142                        0.14      0.14      0.14      0.17         0.14
  D143                        0.07      0.07      0.07      0.06         0.07
  D144                        0.14      0.14      0.14      0.15         0.14
  D145                        0.11      0.11      0.11      0.11         0.11
  D146                        0.10      0.10      0.10      0.09         0.10
  D147                        0.09      0.09      0.09      0.09         0.09
  D148                        0.19      0.19      0.19      0.21         0.19
  D149                        0.21      0.21      0.21      0.10         0.21
  D150                        0.10      0.10      0.10      0.11         0.10
  D151                        0.12      0.12      0.12      0.12         0.12
  D156                        0.13      0.13      0.13      0.11         0.13
  D157                        0.18      0.18      0.18      0.19         0.18
  D158                        0.17      0.17      0.17      0.18         0.17
  D159                        0.10      0.10      0.10      0.09         0.10
  D160                        0.17      0.17      0.17      0.19         0.17
  D165                        0.13      0.13      0.13      0.05         0.13
  D168                        0.09      0.09      0.09      0.07         0.09
  D170                        0.07      0.07      0.07      0.07         0.07
  D171                        0.08      0.08      0.08      0.09         0.08
  D173                        0.12      0.12      0.12      0.12         0.12
  D174                        0.03      0.03      0.03      0.01         0.03
  D175                        0.12      0.12      0.12      0.13         0.12
  D176                        0.14      0.14      0.14      0.16         0.14
  D177                        0.12      0.12      0.12      0.13         0.12
  D178                        0.13      0.13      0.13      0.14         0.13
  D179                        0.15      0.15      0.15      0.06         0.15
  D180                        0.03      0.03      0.03      0.04         0.03
  D183                        0.12      0.12      0.12      0.11         0.12
  D184                        0.38      0.38      0.38      0.38         0.38
  D185                        0.05      0.05      0.05      0.05         0.05
  D186                        0.15      0.15      0.15      0.15         0.15
  D187                        0.17      0.17      0.17      0.17         0.17
  D188                        0.15      0.15      0.15      0.16         0.15
  D189                        0.04      0.04      0.04      0.03         0.04
  D190                        0.07      0.07      0.07      0.07         0.07
  D191                        0.17      0.17      0.17      0.17         0.17
  D192                        0.12      0.12      0.12      0.13         0.12
  D193                        0.20      0.20      0.20      0.21         0.20
  D194                        0.13      0.13      0.13      0.13         0.13
  D195                        0.17      0.17      0.17      0.17         0.17
  D197                        0.17      0.17      0.17      0.17         0.17
  D198                        0.14      0.14      0.14      0.06         0.14
  D199                        0.03      0.03      0.03      0.02         0.03
  D200                        0.17      0.17      0.17      0.05         0.17
  D202                        0.01      0.01      0.01      0.01         0.01
  D203                        0.22      0.22      0.22      0.06         0.22
  D204                        0.16      0.16      0.16      0.17         0.16
  D205                        0.19      0.19      0.19      0.19         0.19
  D206                        0.12      0.12      0.12      0.13         0.12
  D208                        0.13      0.13      0.13      0.13         0.13
  D209                        0.09      0.09      0.09      0.10         0.09
  

  Analysis begun on:  Wed Jan 31 20:54:59 2024
  Analysis ended on:  Wed Jan 31 20:54:59 2024
  Total elapsed time: < 1 sec